<?xml version="1.0" encoding="UTF-8"?>

<!-- generated on 02/19/21 19:39:53 by Eclipse SUMO duarouter Version 1.8.0
<configuration xmlns:xsi="http://www.w3.org/2001/XMLSchema-instance" xsi:noNamespaceSchemaLocation="http://sumo.dlr.de/xsd/duarouterConfiguration.xsd">

    <input>
        <net-file value="OSM\MK.net.xml"/>
        <route-files value="trips.trips.xml"/>
    </input>

    <output>
        <output-file value="OSM\MK.rou.xml"/>
        <alternatives-output value="OSM\MK.rou.alt.xml"/>
    </output>

    <time>
        <begin value="0"/>
        <end value="800"/>
    </time>

    <report>
        <no-warnings value="true"/>
        <ignore-errors value="true"/>
        <no-step-log value="true"/>
    </report>

</configuration>
-->

<routes xmlns:xsi="http://www.w3.org/2001/XMLSchema-instance" xsi:noNamespaceSchemaLocation="http://sumo.dlr.de/xsd/routes_file.xsd">
    <vehicle id="0" depart="0.00">
        <route edges="34992304#5 34992304#6 34992304#7 34992304#8 34992304#0 34992304#1 34992401 34992328#5 34992328#6 34992328#0 34992328#1 34992328#2 34992395#0 34992395#1 34992395#2 754296676 754296675#0 754296675#1 155063374 544543729 544543728#0 544543728#1 85788912 4239954#6 4239954#7 4239954#0 85788972 10425220#0 10425220#1 10425220#2 10425220#3 155010568 754439890 767617780 767617781#0 767617781#1 767617781#2 767617781#3 34826624#0 34826624#1 103556351#2 103556351#3 103556351#0 -103560509#7 -103560509#6 -103560509#5 -103560509#4 -103560509#3 -103560509#2 -103560509#1"/>
    </vehicle>
    <vehicle id="1" depart="1.00">
        <route edges="-767617781#0 -767617780 -754439890 754439890 767617780 767617781#0 767617781#1 767617781#2 767617781#3 767617781#4 767624322 767624323 154501963 4706989#3 4706990 767624319 767624318#0 767624318#1 103562665 103562663 767629904#0 767629904#1 103562666 767629906 767629905 180008207#4 4287665 767655006 767655007#0 36744295 36780403#0 36780403#1 -36780403#1"/>
    </vehicle>
    <vehicle id="2" depart="2.00">
        <route edges="36744315#1 753219765 103562666 767629906 767629905 180008207#4 180008205#0 180008205#1 180008205#2 180008207#0 4016359 767662035 767662034 753350560 753350561 4239528#2 4239528#3 4239528#4 4016357 767654989 767654988 767635097 767635096 4239529#0 4239529#1 4239529#2 4239529#3 4239529#4 4239952 112668208 112668202#0 112668202#1 34692019 34692020 4239954#4 85788946 -544543728#1 -544543728#0 -544543729 -155063374 -754296675#1 -754296675#0 -754296676 -34992395#2 -34992395#1 -34992395#0 34992328#3 34992335 34992304#3 34992304#4 34992304#5 34992304#6 34992304#7 34992353 34992300#5 34992359"/>
    </vehicle>
    <vehicle id="3" depart="3.00">
        <route edges="85754387#0 85754387#1 40447413#7 40447413#8 40447649#0 40447649#1 40447649#2 34992369#4 34992369#5 34992369#6 34992384 34992344#3 34992344#4 34992405#4 -32011866#1 -32011866#0 34992330#2 34992330#3 34992330#4 -179767738#1 -179767738#0 -179767740 -34692008#1 -34692008#0 357556164 34671913#7 34671916#0 34671916#1 34674117#0 34674117#1 90038891#5 90038891#0 90038891#1 90038885#0 90038885#1 90038885#2 90038885#3 -200296480#7 -200296480#6 34674296 -34674296"/>
    </vehicle>
    <vehicle id="5" depart="5.00">
        <route edges="-36744314#3 -36744314#2 -36744314#1 -36744314#0 36779595#3 36779595#0 36744315#0 36744315#1 753219765 103562666 767629906 767629905 180008207#4 180008205#0 180008205#1 180008205#2 180008207#0 180008207#1 180008207#2 10442337 767629907 767629908 103562660#0 103562660#1 103562667 767629902 767629903 103562668#0 103562668#1 767624320 767624321 4706989#1 154501964 -767624323 -767624322 -767617781#4 34826624#0 34826624#1 103556351#2 103556354#0 103556354#1 -103556353#9 -103556353#8 -103556353#7 -103556353#6 -103556353#5 -103556353#4 -103556353#3 -103556353#2 -103556353#1 34725438#0 34725438#1 34725438#2 103478020#0 103478020#1 103478020#2 103478020#3 103478020#4 103478020#5 103478020#6 103478020#7 103478020#8 103478020#9 103478020#10 103478020#11 103478020#12 155010565#0 34727390#0 34727390#1 34727390#2 34727390#3 34727390#4 34727390#5"/>
    </vehicle>
    <vehicle id="6" depart="6.00">
        <route edges="-103560509#2 103560509#2 103560509#3 103560509#4 103560509#5 103560509#6 103560509#7 103556351#1 -34826624#1 -34826624#0 -767617781#3 -767617781#2 -767617781#1 -767617781#0 -767617780 -754439890 -155010568 34853168#0 34853168#1 34853168#2 90240778#2 90240778#3 90240787 90129512#2 90129512#3 90129510 90038869#2 90038869#3 90038880#0 90038880#1 90038880#2 90038880#3 155010566#0 155010566#1 128290198 34672937#3 34672937#4 34672937#5 34691994 34692004#0 34692004#1 357556159 34671913#3 34671913#4 34671913#5 34691997 34692008#0 34692008#1 179767740 179767738#0 179767738#1 34992330#5 34992330#6 34992330#0 34992330#1 34992330#2 34992324#0 -34992367#4 -34992367#3 -34992367#2 -34992367#1"/>
    </vehicle>
    <vehicle id="7" depart="7.00">
        <route edges="34992315#2 34992342#0 34992342#1 34992342#2 34992342#3 -34992308#1 -34992308#0 34992405#2 34992405#3 34992405#4 -32011866#1 -32011866#0 34992330#2 34992330#3 34992330#4 -179767738#1 -179767738#0 -179767740 -34692008#1 -34692008#0 357556164 34671913#7 34671913#8 34671913#0 34671913#1 34691995 -34692004#1 -34692004#0 128290199 34672937#7 34672937#8 34672937#0 34672937#1 34691993 -155010566#1 -155010566#0 -155010567#2 -155010567#1 -155010567#0 -34692003#1 -34692003#0 357556158 34672941#7 34672941#8 34672941#0 34672941#1 34672941#2 34672941#3 34672942#0 34672942#1 -90136123 90136117#2 -34784765#5 -34784765#4 -34784765#3 -34784765#2 -34784765#1 -34784765#0 34784765#0"/>
    </vehicle>
    <vehicle id="8" depart="8.00">
        <route edges="-36744315#1 36744315#1 753219765 103562666 767629906 767629905 180008207#4 180008205#0 180008205#1 180008205#2 180008207#0 4016359 767662035 767662034 753350560 753350561 4239528#2 4239528#3 4239528#4 4016357 767654989 767654988 767635097 767635096 4239529#0 4239529#1 4239529#2 4239529#3 4239529#4 4239952 112668208 112668202#0 112668202#1 34692019 34692020 4239954#4 85788946 -544543728#1 -544543728#0 -544543729 -155063374 -754296675#1 -754296675#0 -754296676 -34992395#2 -34992395#1 -34992395#0 34992328#3 34992328#4 34992328#5 -34992356#3 -34992356#2 -34992356#1 -34992356#0 34992276#3 34992276#4 34992276#5 34992276#6 34992276#0 34992276#1"/>
    </vehicle>
    <vehicle id="9" depart="9.00">
        <route edges="4265726#5 4265726#6 847204748 847204750 865703882#0 4239525 767655002 767655003#0 767655003#1 235405528 180008207#0 4016359 767662035 767662034 753350560 753350561 4239528#2 4239528#3 4239528#4 4016357 767654989 767654988 767635097 767635096 4239529#0 4239529#1 4239529#2 4239529#3 4239529#4 4239952 112668208 112668202#0 112668202#1 34692019 34692020 4239954#4 4239954#5 4239954#6 85788991 -824591634 -824591629 -824591632 -824591628 -824591626#2 -824591626#1 -824591626#0 824591625 45194817#1 45194817#2 45194817#3 45194817#4 45194817#5 103477424#4 103477424#0 103477415#0 103477415#1 103477415#2 103477415#3 103477415#4 -103477415#4"/>
    </vehicle>
    <vehicle id="10" depart="10.00">
        <route edges="4239954#7 4239954#0 4239954#1 4239954#2 4239954#3 4239954#4 85788946 -544543728#1 -544543728#0 -544543729 -155063374 -754296675#1 -754296675#0 -754296676 -34992395#2 -34992395#1 -34992395#0 34992328#3 34992335 34992304#3 34992304#4 34992304#5 34992304#6 34992304#7 34992353 34992300#5 34992300#6 34992300#7 34992300#8 34992300#0 34992300#1 34992386"/>
    </vehicle>
    <vehicle id="11" depart="11.00">
        <route edges="103477424#1 103477424#2 103477424#3 -45194817#5 -45194817#4 -45194817#3 -45194817#2 -45194817#1 -45194817#0 824591624 155010564 824591626#0 824591626#1 824591626#2 824591628 824591632 824591629 824591634 85788988 4239954#0 85788972 10425220#0 10425220#1 10425220#2 10425220#3 34853168#0 34853168#1 34853168#2 90240778#2 90240778#3 90240787 90129512#2 90129512#3 90129510 90038869#2 90038869#3 90038880#0 90038880#1 90038880#2 90038880#3 -155010567#2 -155010567#1 -155010567#0 -34692003#1 -34692003#0 357556158 34672941#7 34672941#8 34672941#0 34672941#1 34672941#2 34672941#3 34672942#0 34790626#0 34790626#1 -34790626#1"/>
    </vehicle>
    <vehicle id="12" depart="12.00">
        <route edges="90129506#3 90129506#4 90129506#0 90129507#0 90129507#1 90129512#3 90129512#4 90129512#0 90129512#1 -90240787 90240778#4 90240778#0 90240778#1 -34853168#2 -34853168#1 -34853168#0 155010568 754439890 767617780 767617781#0 767617781#1 767617781#2 767617781#3 34826624#0 34826624#1 103556351#2"/>
    </vehicle>
    <vehicle id="13" depart="13.00">
        <route edges="-34674122#0 90038885#1 90038885#2 90038885#3 90038885#4 90129509#1 90129509#2 90129511#0 90129511#1 90129511#2 90240778#1 -34853168#2 -34853168#1 -34853168#0 -10425220#3 34613310#0 34613310#1 34728266 724993960#0 724993960#1 724993960#2 103479372#0 103479372#1 103556353#0 34725438#0 34725438#1 34725438#2 103478020#0 103478020#1 103478020#2 103478020#3 103478020#4 103478020#5 103478020#6 103478020#7 103478020#8 103478020#9 103478020#10 103478020#11 103478020#12 155010565#0 155010565#1 155010565#2 155010565#3 -34724759#1 -34724759#0"/>
    </vehicle>
    <vehicle id="14" depart="14.00">
        <route edges="767617781#1 -767617781#1 -767617781#0 -767617780 -754439890 -155010568 -10425220#3 -10425220#2 -10425220#1 -10425220#0 85788971 4239954#2 4239954#3 4239954#4 85788946 -544543728#1 -544543728#0 -544543729 -155063374 -754296675#1 -754296675#0 -754296676 -34992395#2 -34992395#1 -34992395#0 34992328#3 34992328#4 34992328#5 34992328#6 34992328#0 34992322 34992280#6 34992280#7 34992280#0 40851483#0 -34992285#5 -34992285#4 34992285#4"/>
    </vehicle>
    <vehicle id="15" depart="15.00">
        <route edges="4265726#0 4265726#1 4265726#2 4265726#3 4265726#4 4265726#5 4265726#6 847204748 847204750 865703882#0 4239525 767655002 767655003#0 767655003#1 235405528 180008207#0 180008207#1 180008207#2 180008207#3 180008207#4 4287665 767655006 767655007#0 36744295 36780403#0 36780403#1 36780403#2 36780403#3 36780403#4 36780403#5 36780403#6 36780403#7 36779595#0 36744315#0 36744315#1"/>
    </vehicle>
    <vehicle id="16" depart="16.00">
        <route edges="34783116#3 34783116#4 34783116#0 34784765#0 34784765#1 34784765#2 34784765#3 34784765#4 34784765#5 90136117#3 -90136115#1 -90136115#0 90136106#2"/>
    </vehicle>
    <vehicle id="17" depart="17.00">
        <route edges="112668202#0 112668202#1 34692019 34692020 4239954#4 4239954#5 4239954#6 4239954#7 4239954#0 85788972 10425220#0 10425220#1 10425220#2 10425220#3 34853168#0 34853168#1 34853168#2 90240778#2 90240778#3 90240787 90129512#2 -90129507#1 -90129507#0 90129506#1 90129506#2 -90097132 90097130#1 90097130#2 -90096660 90096658#1 90096658#2 -90096657#2 -90096657#1 -90096657#0 90096656#1 90096656#2 90096656#3 -34785708 34782844#2 34785572#0 34785633#0 34785633#1"/>
    </vehicle>
    <vehicle id="18" depart="18.00">
        <route edges="5208343#6 -5208343#6 -5208343#5 -5208343#4 -5208343#3 -5208343#2 -5208343#1 -5208343#0 34613287#0 34613287#1 34613287#2 34613287#3 34613287#4 34613287#5 34613287#6 103474426#0 85760051#0 85760051#1 -754296675#1 -754296675#0 -754296676 -34992395#2 -34992395#1 -34992395#0 34992328#3 34992328#4 34992328#5 -34992356#3 -34992356#2 -34992356#1 -34992356#0 34992276#3 34992276#4 34992276#5 34992276#6 34992276#0 40850824#0 40850824#1 40850824#2 34992299#7 34992299#8 34992299#0 34992299#1 34992299#2 34992299#3"/>
    </vehicle>
    <vehicle id="19" depart="19.00">
        <route edges="767655000 847204749#0 847204749#1 865703879 865703923#0 865703923#1 865703883 865703882#0 4239525 767655002 767655003#0 767655003#1 235405528 180008207#0 180008207#1 180008207#2 10442337 767629907 767629908 103562660#0 180022715 180022716 34672947#2 34672947#3 34691944 34672945#2 34672945#3 34672945#4 34691999#0 34691999#1 357556161 34672941#3 34672941#4 34672941#5 34672941#6 34672941#7 34672940#0 -34853171#1 -90025761#1 -90025761#0 90025762#4 90025762#0 90025762#1 -34853458 34853458"/>
    </vehicle>
    <vehicle id="21" depart="21.00">
        <route edges="-36744341#2 -36744341#1 -36744341#0 36779591#2 36779591#3 36779591#0 36744348#0 36744348#1 569366713 103562665 103562663 767629904#0 767629904#1 103562666 767629906 767629905 180008207#4 180008205#0 180008205#1 180008205#2 180008207#0 180008207#1 180008207#2 10442337 767629907 767629908 103562660#0 180022715 180022716 34672947#2 34672947#3 34691944 34672945#2 34672945#3 34672945#4 34691999#0 34691999#1 357556161 34672941#3 34672941#4 34672941#5 34672941#6 34672941#7 34672940#0 34672940#1 34785520 90038875#4 90038875#0 90038875#1 90038863#0 90038863#1 90096658#4 90096658#0 90096660 90097130#3 90097130#4 90097130#0 90097130#1 90097131#0 90097131#1 -90097131#1"/>
    </vehicle>
    <vehicle id="22" depart="22.00">
        <route edges="-34613486 -5208343#13 -5208343#12 -5208343#11 -5208343#10 -5208343#9 -5208343#8 89834012 824591633 -824591628 -824591626#2 -824591626#1 -824591626#0 824591625 -45194817#0"/>
    </vehicle>
    <vehicle id="23" depart="23.00">
        <route edges="-34699276#1 34699277#0 34699277#1 103560509#4 103560509#5 103560509#6 103560509#7 103556351#1 -34826624#1 -34826624#0 -767617781#3 -767617781#2 -767617781#1 -767617781#0 -767617780 -754439890 -155010568 34853168#0 34853168#1 34853168#2 90240778#2 90240778#3 90240787 90129512#2 -90129507#1 -90129507#0 90129506#1 90129506#2 -90097132 90097130#1 90097130#2 -90096660 90096658#1 90096658#2 90096658#3 -90038863#1 -90038863#0"/>
    </vehicle>
    <vehicle id="24" depart="24.00">
        <route edges="34992301#9 34992301#0 34992301#1 34992301#2 34992301#3 34992301#4 34992301#5 34992301#6 34992336#0 34992336#1 34992299#3 34992299#4 34992299#5 34992392#0 34992392#1 34992392#2 34992276#2 34992356#0 34992356#1 34992356#2 34992356#3 34992328#6 34992328#0 34992328#1 34992328#2 34992395#0 34992395#1 34992395#2 754296676 754296675#0 754296675#1 155063374 544543729 544543728#0 544543728#1 85788912 4239954#6 4239954#7 4239954#0 4239954#1 4239954#2 4239953 34692017 34692018 112668198 112668197 4239529#6 4239529#7 4239529#0 4239529#1 4239529#2 4239529#3 4239529#4 4239952 112668208"/>
    </vehicle>
    <vehicle id="25" depart="25.00">
        <route edges="10425220#0 10425220#1 10425220#2 10425220#3 155010568 754439890 767617780 767617781#0 767617781#1 767617781#2 767617781#3 767617781#4 767624322 767624323 154501963 4706989#3 4706990 767624319 767624318#0 767624318#1 103562665 103562663 767629904#0 36744316 -36744315#1"/>
    </vehicle>
    <vehicle id="26" depart="26.00">
        <route edges="-651715214 -34992281#1 -34992281#0 34992284#1 34992390#1 34992301#6 34992336#0 34992336#1 34992299#3 34992299#4 34992299#5 34992392#0 34992392#1 34992392#2 34992276#2 34992276#3 34992276#4 34992276#5 -34992346#1 -34992346#0 -34992307#2 -34992307#1 -34992307#0 34992372#2 34992372#3 34992372#4 -155063368#3 -155063368#2 -155063368#1 -155063368#0 -34992308#1 -34992308#0 34992405#2 34992405#3 34992405#4 -32011866#1 -32011866#0 34992330#2 34992330#3 34992330#4 -179767738#1 -179767738#0 -179767740 -34692008#1 -34692008#0 357556164 34671913#7 34671916#0 34671916#1 34674117#0 34674117#1 90038891#5 90038891#0 90038891#1 90038891#2 90038891#3 90038891#4"/>
    </vehicle>
    <vehicle id="27" depart="27.00">
        <route edges="34992314#1 34992277#0 -34992277#0 -34992314#1 -34992314#0 34992339#4 34992372#4 34992372#5 40446935#0 40446935#1 104700446 34992294#3"/>
    </vehicle>
    <vehicle id="28" depart="28.00">
        <route edges="-34853168#0 155010568 754439890 767617780 767617781#0 767617781#1 767617781#2 767617781#3 767617781#4 767624322 767624323 154501963 4706989#3 4706990 767624319 767624318#0 767624318#1 103562665 103562663 767629904#0 36744316 -36744315#1 -36744315#0 36779595#1 36779595#2 36744314#0 36744314#1 36744314#2 36744314#3 36744314#4"/>
    </vehicle>
    <vehicle id="30" depart="30.00">
        <route edges="90240780#0 -90240784 90240776#3 90240776#4 90240776#0 -34667923 -34667922#0 34671910#1 34743838#0 34743838#1 34671915#2 34671915#3 34671913#5 34691997 34692008#0 34692008#1 179767740 179767738#0 179767738#1 34992330#5 34992330#6 34992330#0 34992330#1 32011866#0 32011866#1 34992405#5 34992405#6 34992405#0 34992405#1 34992308#0 34992308#1"/>
    </vehicle>
    <vehicle id="31" depart="31.00">
        <route edges="34785572#0 -34785572#0 34782844#3 34785538#0 34785538#1 126354471#0 126354471#1 34672945#1 34672945#2 34672945#3 34672945#4 34691999#0 34691999#1 357556161 34672941#3 34672941#4 34672941#5 34691992 34692003#0 34692003#1 155010567#0 155010567#1 155010567#2 155010566#0 155010566#1 128290198 34672937#3 34672937#4 34672937#5 34691994 34692004#0 34692004#1 357556159 34671913#3 34671913#4 34671913#5 34691997 34692008#0 34692008#1 179767740 179767738#0 179767738#1 34992330#5 34992330#6 34992330#0 34992330#1 34992330#2 34992324#0 -34992367#4 -34992367#3 34992367#3"/>
    </vehicle>
    <vehicle id="32" depart="32.00">
        <route edges="754296675#1 -754296675#1 -754296675#0 -754296676 -34992395#2 -34992395#1 -34992395#0 34992328#3 34992328#4 34992328#5 34992328#6 34992328#0 34992322 34992280#6 34992280#7 34992280#0 40851483#0 40851483#1"/>
    </vehicle>
    <vehicle id="33" depart="33.00">
        <route edges="-36744341#4 -36744341#3 -36744341#2 -36744341#1 -36744341#0 36779591#2 36779591#3 36779591#0 36744348#0 36744348#1 569366713 103562665 103562663 767629904#0 767629904#1 103562666 767629906 767629905 180008207#4 180008205#0 180008205#1 180008205#2 180008207#0 180008207#1 180008207#2 10442337 767629907 767629908 103562660#0 103562660#1 103562667 767629902 767629903 103562668#0 103562668#1 767624320 767624321 4706989#1 154501964 -767624323 -767624322 -767617781#4 -767617781#3 -767617781#2 -767617781#1 -767617781#0 -767617780 -754439890 -155010568 -10425220#3 -10425220#2 -10425220#1"/>
    </vehicle>
    <vehicle id="34" depart="34.00">
        <route edges="-90130851#1 90130846 -34853998#0 34671915#1 34671915#2 34671915#3 34671913#5 34691997 34692008#0 34692008#1 179767740 179767738#0 179767738#1 34992330#5 34992330#6 34992330#0 34992330#1 32011866#0 32011866#1 34992405#5 34992405#6 34992405#0 34992405#1 34992405#2 34992344#0 34992344#1 104700454 34992369#0 34992369#1 34992369#2 40447645 40447413#1 40447413#2 40447413#3 40447413#4 40447413#5 85754387#0 -85754373#4 -85754373#3 -85754455"/>
    </vehicle>
    <vehicle id="35" depart="35.00">
        <route edges="-34992367#3 34992367#3 34992367#4 34992324#1 34992324#2 34992324#3 34992330#4 -179767738#1 -179767738#0 -179767740 -34692008#1 -34692008#0 357556164 34671913#7 34671913#8 34671913#0 34671913#1 34691995 -34692004#1 -34692004#0 128290199 34672937#7 34672937#8 34672937#0 34672937#1 34691993 -155010566#1 -155010566#0 -155010567#2 -155010567#1 -155010567#0 -34692003#1 -34692003#0 357556158 34672941#7 34672940#0 34672940#1 34785520 90038875#4 90038875#0 90038875#1 90038863#0 90038863#1 90096658#4 90096658#0 90096658#1 90096658#2 -90096657#2 -90096657#1 90096657#1"/>
    </vehicle>
    <vehicle id="36" depart="36.00">
        <route edges="824591621 824591623 155010564 824591626#0 824591626#1 824591626#2 824591628 -824591633 -89834012 -5208343#7 -5208343#6 -5208343#5 -5208343#4 -5208343#3 -5208343#2 -5208343#1 -5208343#0 34613287#0 34613287#1 34613287#2 34613287#3 34613287#4 34613287#5 34613287#6 103474426#0 103474426#1 103474426#2 103474426#3"/>
    </vehicle>
    <vehicle id="37" depart="37.00">
        <route edges="34992324#2 34992324#3 34992330#4 -179767738#1 -179767738#0 -179767740 -34692008#1 -34692008#0 357556164 34671913#7 34671913#8 34671913#0 34671913#1 34691995 -34692004#1 -34692004#0 128290199 34672937#7 34672939#0 34672939#1 -90038851#3 -90038851#2 -90038851#1 -90038851#0 90038881#5 90038881#0 90038881#1 90038881#2 -90129513#1 -90129513#0 90129505#4 90129505#0 90129508 -200294905#2 200294905#2"/>
    </vehicle>
    <vehicle id="38" depart="38.00">
        <route edges="90038854#1 90038854#2 90038854#3 90038854#4 90038854#0 90038866 90038875#3 -34785520 34672940#2 34672940#3 34672941#1 34672941#2 34672941#3 34672941#4 34672941#5 34691992 34692003#0 34692003#1 155010567#0 155010567#1 155010567#2 155010566#0 155010566#1 128290198 34672937#3 34672937#4"/>
    </vehicle>
    <vehicle id="39" depart="39.00">
        <route edges="-641899175#1 34790301#0 34790332 90038854#4 90038854#0 90038866 90038875#3 90038875#4 90038875#0 90038860 90025762#3 90025762#4 90025762#0 90025764 90038897#3 90038897#4 90038897#0 90038865#0 90038865#1 90038869#3 90038869#4 90038869#0 90038869#1 -90129510 90129512#4 90129512#0 90129512#1 -90240787 90240778#4 90240778#0 90240778#1 -34853168#2 -34853168#1 -34853168#0 -10425220#3 -10425220#2 -10425220#1 -10425220#0 85788971 4239954#2 4239954#3 4239954#4 4239954#5 4239954#6 85788991 -824591634 824591631 -89834012 -5208343#7"/>
    </vehicle>
    <vehicle id="40" depart="40.00">
        <route edges="34785689#2 34785689#3 34785689#4 34785689#5 34785689#6 34785689#7 34789822#0 34789822#1 -90096661#0 90096658#2 90096658#3 90096658#4 90096658#0 90096660 90097130#3 90097130#4 90097130#0 90097132 90129506#3 90129506#4 90129506#0 90129507#0 90129507#1 90129512#3 90129512#4 90129512#0 90129512#1 -90240787 90240778#4 90240778#0 90240778#1 -34853168#2 -34853168#1 -34853168#0 -10425220#3 34613310#0 34613310#1 103479370#0 103479370#1 103479370#2 824591630 -824591632"/>
    </vehicle>
    <vehicle id="41" depart="41.00">
        <route edges="34853458 90025762#2 90025762#3 90025762#4 90025762#0 90025764 90038897#3 90038897#4 90038897#0 90038865#0 90038865#1 90038869#3 90038869#4 90038869#0 90038869#1 -90129510 90129512#4 90129512#0 90129512#1 -90240787 90240778#4 90240778#0 90240778#1 -34853168#2 -34853168#1 -34853168#0 -10425220#3 -10425220#2 -10425220#1 -10425220#0 85788971 4239954#2 4239954#3 4239954#4 85788946 -544543728#1 -544543728#0 -544543729 -155063374 -754296675#1 -754296675#0 -754296676 754296676 85760065"/>
    </vehicle>
    <vehicle id="42" depart="42.00">
        <route edges="179767738#1 -179767738#1 -179767738#0 -179767740 -34692008#1 -34692008#0 357556164 34671913#7 34671913#8 34671913#0 34671913#1 34691995 -34692004#1 -34692004#0 128290199 34672937#7 34672937#8 34672937#0 34672937#1 34691993 -155010566#1 -155010566#0 -90038880#3 -90038880#2 -90038880#1 -90038880#0 90038869#4 90038869#0 90038869#1 -90129510 90129512#4 90129512#0 90129512#1 -90240787 90240778#4 90240778#0 90240778#1 -34853168#2 -34853168#1 -34853168#0 155010568 754439890 767617780 767617781#0 767617781#1 767617781#2 767617781#3 767617781#4 767624322 767624323 154501963 4706989#3 4706990 767624319 767624318#0 36779592 -36744348#1 -36744348#0 36779591#1 36744341#0 36744341#1 36744341#2 36744341#3 36744341#4 36744341#5 -36744341#5"/>
    </vehicle>
    <vehicle id="43" depart="43.00">
        <route edges="90240786#0 90240786#1 90240781 34672938#1 34672938#2 34672937#5 34672937#6 34672937#7 34672937#8 34672937#0 34672937#1 34691993 -155010566#1 -155010566#0 -90038880#3 -90038880#2 -90038880#1 -90038880#0 90038869#4 90038869#0 90038869#1 -90129510 90129512#4 90129512#0 90129512#1 -90240787 90240778#4 90240778#0 90240778#1 -34853168#2 -34853168#1 -34853168#0 -10425220#3 34613310#0 34613310#1 34728266 724993960#0 724993960#1 724993960#2 103479372#0 103479372#1 103556353#0 34725438#0 34725438#1 34725438#2 103478020#0 103478020#1 103478020#2 103478020#3 103478020#4 103478020#5 103478020#6 103478020#7 34727799#0 34727799#1"/>
    </vehicle>
    <vehicle id="45" depart="45.00">
        <route edges="-34727390#4 -34727390#3 -34727390#2 -34727390#1 -34727390#0 155010565#1 155010565#2 155010565#3 155010565#4 155010565#5 155010565#6 824591623 155010564 824591626#0 824591626#1 824591626#2 824591628 -824591633 -89834012 -5208343#7 -5208343#6 -5208343#5 -5208343#4 -5208343#3 -5208343#2 -5208343#1 -5208343#0 34613287#0 34613287#1 34613287#2 34613287#3 34613287#4 34613287#5 34613287#6 103474426#0 85760051#0 85760051#1 -754296675#1 -754296675#0 -754296676 -34992395#2 -34992395#1 -34992395#0 34992328#3 34992328#4 34992328#5 -34992356#3 -34992356#2 -34992356#1 -34992356#0 34992276#3 34992276#4 34992276#5 34992276#6 34992276#0 40850824#0 40850824#1 40850824#2 34992299#7 34992299#8 34992299#0 34992299#1 34992358#0 34992358#1 34992358#2 34992358#3 34992301#8 34992301#9 34992301#0 34992301#1 34992301#2 34992301#3 34992301#4"/>
    </vehicle>
    <vehicle id="48" depart="48.00">
        <route edges="90240785#3 90240785#4 90240785#0 90240785#1 90240785#2 90240782#0 90240782#1 90136101#1 90136101#2 34784743#0 34784743#1 34784743#2 90136106#1 90136106#2 90136132 34784731#1 34784731#2 34784731#3 -34784765#2 -34784765#1 -34784765#0 34783116#1 34783116#2 34783116#3 34783392 34783222#5 34783222#6 34783222#7 34783222#8 34783222#0 34783222#1"/>
    </vehicle>
    <vehicle id="49" depart="49.00">
        <route edges="90136105 90136111#1 -90136126#0 90136117#1 90136117#2 90136117#3 -90136115#1 -90136115#0 90136106#2 90136106#3 90136106#4 90136106#0 -34784743#2 -34784743#1 -34784743#0 90136101#3 -767635095 -767635094 -34669316 34669316 767635094 767635095"/>
    </vehicle>
    <vehicle id="50" depart="50.00">
        <route edges="-103478020#11 103478020#11 103478020#12 155010565#0 155010565#1 155010565#2 155010565#3 155010565#4 155010565#5 155010565#6 824591623 155010564 824591626#0 824591626#1 824591626#2 824591628 -824591633 -89834012 -5208343#7 -5208343#6 -5208343#5 -5208343#4 -5208343#3 -5208343#2 -5208343#1 -5208343#0 34613287#0 34613287#1 34613287#2 34613287#3 34613287#4 34613287#5 34613287#6 103474426#0 85760051#0 85760051#1 -754296675#1 -754296675#0 -754296676 -767317911 -204909310 641552070 35285508#4 35285508#0 35285508#1 35285508#2 35285451"/>
    </vehicle>
    <vehicle id="51" depart="51.00">
        <route edges="34992358#1 34992358#2 34992358#3 34992301#8 34992388#0 34992388#1 34992388#2 -40857051#3 -40857051#2 -40857051#1 -40857051#0 -34992340 34992362#1 34992366#4 -34992307#3 -34992307#2 -34992307#1 -34992307#0 34992372#2 34992372#3 34992372#4 -155063368#3 -155063368#2 -155063368#1 -155063368#0 -34992308#1 -34992308#0 34992405#2 34992405#3 34992405#4 -32011866#1 -32011866#0 34992330#2 34992330#3 34992330#4 -179767738#1 -179767738#0 -179767740 -34692008#1 -34692008#0 357556164 34671913#7 34671913#8 34671913#0 34671913#1 34691995 -34692004#1 -34692004#0 128290199 34672937#7 34672937#8 34672937#0 34672937#1 34691993 -155010566#1 -155010566#0 -155010567#2 -155010567#1 -155010567#0 -34692003#1 -34692003#0 357556158 34672941#7 34672941#8 34672941#0 34672941#1 34691991 -34691999#1 -34691999#0 34672945#5 34672945#6 34672945#0 34672945#1 34672945#2 34672944#0 34672944#1 -34790223 34783116#2 34784614#0 34784614#1 34784646#0 34784646#1 34784646#2 34784646#3"/>
    </vehicle>
    <vehicle id="52" depart="52.00">
        <route edges="-651715214 -34992281#1 -34992281#0 34992284#1 34992390#1 34992301#6 34992336#0 34992336#1 34992299#3 34992299#4 34992299#5 34992392#0 34992392#1 34992392#2 34992276#2 34992276#3 34992276#4 34992276#5 -34992346#1 -34992346#0 -34992307#2 -34992307#1 -34992307#0 34992372#2 34992372#3 34992372#4 -155063368#3 -155063368#2 -155063368#1 -155063368#0 -34992308#1 -34992308#0 34992405#2 34992405#3 34992405#4 -32011866#1 -32011866#0 34992330#2 34992330#3 34992330#4 34992330#5 40446939#0 40446939#1 40446939#2 34992313#0"/>
    </vehicle>
    <vehicle id="53" depart="53.00">
        <route edges="-34727394 -34727390#3 -34727390#2 -34727390#1 -34727390#0 -155010565#0 -103478020#12 -103478020#11 -103478020#10 -103478020#9 -103478020#8 -103478020#7 -103478020#6 -103478020#5 -103478020#4 -103478020#3 -103478020#2 -103478020#1 -103478020#0 -34725438#2 -34725438#1 -34725438#0 103556353#1 103556353#2 103556353#3 103556353#4 103556353#5 103556353#6 103556353#7 103556353#8 103556353#9 -103556354#1 -103556354#0 103556351#3 103556351#0 -103560509#7 34613306#0 34613306#1 34613306#2"/>
    </vehicle>
    <vehicle id="54" depart="54.00">
        <route edges="34667924#1 -34667924#1 34667870 90240776#4 90240776#0 90240776#1 90240779#0 90240779#1 90240786#4 90240786#0 90240786#1 90240781 34672938#1 34672938#2 34672937#5 34672937#6 34672937#7 34672939#0 34672939#1 -90038851#3 -90038851#2 -90038851#1 -90038851#0 90038881#5 90038881#0 90038881#1 90038881#2 -90129513#1 -90129513#0 90129505#4 90129505#0 90129505#1 -90129504#1 90129504#1"/>
    </vehicle>
    <vehicle id="56" depart="56.00">
        <route edges="34691999#1 357556161 34672941#3 34672941#4 34672941#5 34691992 34692003#0 34692003#1 155010567#0 155010567#1 155010567#2 155010566#0 155010566#1 128290198 34672937#3 34672937#4 34672937#5 34691994 34692004#0 34692004#1 357556159 34671913#3 34671913#4 34671913#5 34691997 34692008#0 34692008#1 179767740 179767738#0 179767738#1 34992330#5 34992330#6 34992330#0 34992330#1 32011866#0 32011866#1 34992405#5 34992405#6 34992405#0 34992405#1 34992308#0 34992308#1 155063368#0 155063368#1 155063368#2 155063368#3 34992372#5 34992372#6 34992372#0 34992372#1 34992307#0 34992307#1 34992307#2 34992346#0 34992346#1 34992276#6 34992276#0 34992276#1 34992276#2 34992356#0 34992356#1 34992356#2 34992356#3 34992328#6 34992328#0 34992322 34992280#6 34992280#7 34992280#0 40851483#0 -34992285#5 -34992285#4 -34992285#3 -34992285#2"/>
    </vehicle>
    <vehicle id="57" depart="57.00">
        <route edges="90038851#1 90038851#2 90038851#3 34672939#2 34672937#1 34691993 -155010566#1 -155010566#0 -155010567#2 -155010567#1 -155010567#0 -90136124#3 -90136124#2 -90136124#1 -90136124#0 90136101#2 90136101#3 -767635095 -767635094 -34669316 4239528#7 4239528#0 4016360 753350563 753350562 767662036 767662037 180008207#2 180008207#3 180008207#4 180008205#0 180008205#1 180008205#2 180008207#0 4016359 767662035 767662034"/>
    </vehicle>
    <vehicle id="58" depart="58.00">