<configuration>

<input>
<net-file value="MK.net.xml"/>
<route-files value="MK.rou.xml"/>
</input>
<time>
<begin value = "0"/>
<end value = "2000"/>
</time>

</configuration>