<?xml version="1.0" encoding="UTF-8"?>
<!-- generated on 2021-02-19 19:39:51.972178 by $Id$ v1_8_0+0044-4820708f3d
  options: -n OSM\MK.net.xml -r OSM\MK.rou.xml -e 800 l
-->
<routes xmlns:xsi="http://www.w3.org/2001/XMLSchema-instance" xsi:noNamespaceSchemaLocation="http://sumo.dlr.de/xsd/routes_file.xsd">
    <trip id="0" depart="0.00" from="34992304#5" to="-103560509#1"/>
    <trip id="1" depart="1.00" from="-767617781#0" to="-36780403#1"/>
    <trip id="2" depart="2.00" from="36744315#1" to="34992359"/>
    <trip id="3" depart="3.00" from="85754387#0" to="-34674296"/>
    <trip id="4" depart="4.00" from="24469753#4" to="-103964598#1"/>
    <trip id="5" depart="5.00" from="-36744314#3" to="34727390#5"/>
    <trip id="6" depart="6.00" from="-103560509#2" to="-34992367#1"/>
    <trip id="7" depart="7.00" from="34992315#2" to="34784765#0"/>
    <trip id="8" depart="8.00" from="-36744315#1" to="34992276#1"/>
    <trip id="9" depart="9.00" from="4265726#5" to="-103477415#4"/>
    <trip id="10" depart="10.00" from="4239954#7" to="34992386"/>
    <trip id="11" depart="11.00" from="103477424#1" to="-34790626#1"/>
    <trip id="12" depart="12.00" from="90129506#3" to="103556351#2"/>
    <trip id="13" depart="13.00" from="-34674122#0" to="-34724759#0"/>
    <trip id="14" depart="14.00" from="767617781#1" to="34992285#4"/>
    <trip id="15" depart="15.00" from="4265726#0" to="36744315#1"/>
    <trip id="16" depart="16.00" from="34783116#3" to="90136106#2"/>
    <trip id="17" depart="17.00" from="112668202#0" to="34785633#1"/>
    <trip id="18" depart="18.00" from="5208343#6" to="34992299#3"/>
    <trip id="19" depart="19.00" from="767655000" to="34853458"/>
    <trip id="20" depart="20.00" from="34992381#4" to="-1734002#1"/>
    <trip id="21" depart="21.00" from="-36744341#2" to="-90097131#1"/>
    <trip id="22" depart="22.00" from="-34613486" to="-45194817#0"/>
    <trip id="23" depart="23.00" from="-34699276#1" to="-90038863#0"/>
    <trip id="24" depart="24.00" from="34992301#9" to="112668208"/>
    <trip id="25" depart="25.00" from="10425220#0" to="-36744315#1"/>
    <trip id="26" depart="26.00" from="-651715214" to="90038891#4"/>
    <trip id="27" depart="27.00" from="34992314#1" to="34992294#3"/>
    <trip id="28" depart="28.00" from="-34853168#0" to="36744314#4"/>
    <trip id="29" depart="29.00" from="-34790452#0" to="178662631#0"/>
    <trip id="30" depart="30.00" from="90240780#0" to="34992308#1"/>
    <trip id="31" depart="31.00" from="34785572#0" to="34992367#3"/>
    <trip id="32" depart="32.00" from="754296675#1" to="40851483#1"/>
    <trip id="33" depart="33.00" from="-36744341#4" to="-10425220#1"/>
    <trip id="34" depart="34.00" from="-90130851#1" to="-85754455"/>
    <trip id="35" depart="35.00" from="-34992367#3" to="90096657#1"/>
    <trip id="36" depart="36.00" from="824591621" to="103474426#3"/>
    <trip id="37" depart="37.00" from="34992324#2" to="200294905#2"/>
    <trip id="38" depart="38.00" from="90038854#1" to="34672937#4"/>
    <trip id="39" depart="39.00" from="-641899175#1" to="-5208343#7"/>
    <trip id="40" depart="40.00" from="34785689#2" to="-824591632"/>
    <trip id="41" depart="41.00" from="34853458" to="85760065"/>
    <trip id="42" depart="42.00" from="179767738#1" to="-36744341#5"/>
    <trip id="43" depart="43.00" from="90240786#0" to="34727799#1"/>
    <trip id="44" depart="44.00" from="-34674117#0" to="-178662633#1"/>
    <trip id="45" depart="45.00" from="-34727390#4" to="34992301#4"/>
    <trip id="46" depart="46.00" from="4239483#5" to="34390930"/>
    <trip id="47" depart="47.00" from="-205834463#2" to="178662634#0"/>
    <trip id="48" depart="48.00" from="90240785#3" to="34783222#1"/>
    <trip id="49" depart="49.00" from="90136105" to="767635095"/>
    <trip id="50" depart="50.00" from="-103478020#11" to="35285451"/>
    <trip id="51" depart="51.00" from="34992358#1" to="34784646#3"/>
    <trip id="52" depart="52.00" from="-651715214" to="34992313#0"/>
    <trip id="53" depart="53.00" from="-34727394" to="34613306#2"/>
    <trip id="54" depart="54.00" from="34667924#1" to="90129504#1"/>
    <trip id="55" depart="55.00" from="779319839#1" to="-824591633"/>
    <trip id="56" depart="56.00" from="34691999#1" to="-34992285#2"/>
    <trip id="57" depart="57.00" from="90038851#1" to="767662034"/>
    <trip id="58" depart="58.00" from="-90038880#2" to="34992307#3"/>
    <trip id="59" depart="59.00" from="34992285#1" to="-34790452#3"/>
    <trip id="60" depart="60.00" from="40446935#2" to="34784646#8"/>
    <trip id="61" depart="61.00" from="40458464#2" to="34783222#3"/>
    <trip id="62" depart="62.00" from="-103474424#1" to="103477424#1"/>
    <trip id="63" depart="63.00" from="-103556352" to="90038881#2"/>
    <trip id="64" depart="64.00" from="824591626#0" to="641003283#3"/>
    <trip id="65" depart="65.00" from="-90097131#1" to="-200296480#7"/>
    <trip id="66" depart="66.00" from="824591625" to="90096661#0"/>
    <trip id="67" depart="67.00" from="-34669314" to="34674299#1"/>
    <trip id="68" depart="68.00" from="-34613290#1" to="40447413#0"/>
    <trip id="69" depart="69.00" from="40446939#3" to="-34784731#3"/>
    <trip id="70" depart="70.00" from="34672939#2" to="34785572#0"/>
    <trip id="71" depart="71.00" from="-641899175#1" to="768085403#1"/>
    <trip id="72" depart="72.00" from="32011866#1" to="-36744317#3"/>
    <trip id="73" depart="73.00" from="34783222#4" to="36744315#1"/>
    <trip id="74" depart="74.00" from="-34992317#1" to="103474424#3"/>
    <trip id="75" depart="75.00" from="90240785#1" to="34992324#3"/>
    <trip id="76" depart="76.00" from="34390935" to="34744064#2"/>
    <trip id="77" depart="77.00" from="-34744061#4" to="-36780403#4"/>
    <trip id="78" depart="78.00" from="103477423#1" to="34992275#3"/>
    <trip id="79" depart="79.00" from="-36744341#6" to="-36744341#7"/>
    <trip id="80" depart="80.00" from="-34613290#4" to="34992303"/>
    <trip id="81" depart="81.00" from="-36744341#4" to="865703883"/>
    <trip id="82" depart="82.00" from="767654988" to="-34613306#0"/>
    <trip id="83" depart="83.00" from="-40857051#0" to="34992344#2"/>
    <trip id="84" depart="84.00" from="-34992395#0" to="-34784765#4"/>
    <trip id="85" depart="85.00" from="90038891#2" to="34790626#2"/>
    <trip id="86" depart="86.00" from="34672937#8" to="4239483#3"/>
    <trip id="87" depart="87.00" from="4265726#1" to="-34992318"/>
    <trip id="88" depart="88.00" from="-34691999#1" to="34613292#0"/>
    <trip id="89" depart="89.00" from="32011912#0" to="34672941#1"/>
    <trip id="90" depart="90.00" from="35285508#1" to="34992356#2"/>
    <trip id="91" depart="91.00" from="90240776#2" to="-34725438#2"/>
    <trip id="92" depart="92.00" from="180008207#0" to="103556353#2"/>
    <trip id="93" depart="93.00" from="767655000" to="-544543728#1"/>
    <trip id="94" depart="94.00" from="-34992285#2" to="34671913#0"/>
    <trip id="95" depart="95.00" from="24469753#4" to="-90038863#1"/>
    <trip id="96" depart="96.00" from="-5208343#16" to="90038874#1"/>
    <trip id="97" depart="97.00" from="34613290#2" to="767635096"/>
    <trip id="98" depart="98.00" from="34784743#0" to="-180022716"/>
    <trip id="99" depart="99.00" from="90240786#4" to="641947637"/>
    <trip id="100" depart="100.00" from="90136101#1" to="90038880#0"/>
    <trip id="101" depart="101.00" from="767617781#4" to="-34853845#2"/>
    <trip id="102" depart="102.00" from="34672944#1" to="-36744317#7"/>
    <trip id="103" depart="103.00" from="180008205#1" to="-200593247"/>
    <trip id="104" depart="104.00" from="112668202#1" to="90240776#3"/>
    <trip id="105" depart="105.00" from="-641899175#1" to="4239483#2"/>
    <trip id="106" depart="106.00" from="34668049" to="34390935"/>
    <trip id="107" depart="107.00" from="90129506#3" to="90240785#1"/>
    <trip id="108" depart="108.00" from="34785538#1" to="34992407"/>
    <trip id="109" depart="109.00" from="-34789515#1" to="-90130846"/>
    <trip id="110" depart="110.00" from="90136101#0" to="34853650#1"/>
    <trip id="111" depart="111.00" from="34784614#0" to="36779595#3"/>
    <trip id="112" depart="112.00" from="-200296480#1" to="34853926#2"/>
    <trip id="113" depart="113.00" from="34692004#1" to="767617781#4"/>
    <trip id="114" depart="114.00" from="-34790097" to="90129509#0"/>
    <trip id="115" depart="115.00" from="-34613487" to="-34992307#2"/>
    <trip id="116" depart="116.00" from="34992275#3" to="34992358#1"/>
    <trip id="117" depart="117.00" from="-36780403#3" to="-34783392"/>
    <trip id="118" depart="118.00" from="85754373#1" to="-5208343#6"/>
    <trip id="119" depart="119.00" from="34992275#2" to="34992299#5"/>
    <trip id="120" depart="120.00" from="235405528" to="34853926#1"/>
    <trip id="121" depart="121.00" from="34744061#1" to="90038891#0"/>
    <trip id="122" depart="122.00" from="-34992342#1" to="34992405#4"/>
    <trip id="123" depart="123.00" from="-40857051#2" to="200294905#2"/>
    <trip id="124" depart="124.00" from="34992342#0" to="-90136115#0"/>
    <trip id="125" depart="125.00" from="-90136111#2" to="36780403#5"/>
    <trip id="126" depart="126.00" from="-34613292#1" to="34672937#2"/>
    <trip id="127" depart="127.00" from="90240786#2" to="90240785#2"/>
    <trip id="128" depart="128.00" from="-34613294" to="-36744317#6"/>
    <trip id="129" depart="129.00" from="-641899175#1" to="90038885#4"/>
    <trip id="130" depart="130.00" from="824591629" to="779319839#1"/>
    <trip id="131" depart="131.00" from="104009999" to="-34790636#0"/>
    <trip id="132" depart="132.00" from="633946079" to="34992392#0"/>
    <trip id="133" depart="133.00" from="34992288#1" to="90240778#2"/>
    <trip id="134" depart="134.00" from="34992323" to="-103477415#7"/>
    <trip id="135" depart="135.00" from="5034640" to="-90136111#2"/>
    <trip id="136" depart="136.00" from="34992330#0" to="90038897#3"/>
    <trip id="137" depart="137.00" from="-34784646#5" to="-34744276#0"/>
    <trip id="138" depart="138.00" from="-34725531#1" to="34785668#1"/>
    <trip id="139" depart="139.00" from="-754296675#1" to="34992288#0"/>
    <trip id="140" depart="140.00" from="34992402#2" to="-34992381#4"/>
    <trip id="141" depart="141.00" from="34992301#6" to="-824591634"/>
    <trip id="142" depart="142.00" from="34672945#5" to="865703883"/>
    <trip id="143" depart="143.00" from="767317911" to="-34692008#0"/>
    <trip id="144" depart="144.00" from="32011912#0" to="-90038857#2"/>
    <trip id="145" depart="145.00" from="-103477414#0" to="40448104#4"/>
    <trip id="146" depart="146.00" from="34992304#0" to="-824591629"/>
    <trip id="147" depart="147.00" from="36744317#8" to="34785633#0"/>
    <trip id="148" depart="148.00" from="32143586#3" to="-103478020#1"/>
    <trip id="149" depart="149.00" from="-34613306#0" to="824591628"/>
    <trip id="150" depart="150.00" from="85789163" to="34784765#2"/>
    <trip id="151" depart="151.00" from="641003283#1" to="34853894#0"/>
    <trip id="152" depart="152.00" from="-34785633#1" to="-34784731#1"/>
    <trip id="153" depart="153.00" from="-90097132" to="85788946"/>
    <trip id="154" depart="154.00" from="4239528#5" to="767635095"/>
    <trip id="155" depart="155.00" from="85788971" to="-36744317#0"/>
    <trip id="156" depart="156.00" from="-5208343#15" to="-34727432#0"/>
    <trip id="157" depart="157.00" from="40850824#0" to="824591630"/>
    <trip id="158" depart="158.00" from="180059155#0" to="34992299#8"/>
    <trip id="159" depart="159.00" from="-34789515#1" to="90038881#4"/>
    <trip id="160" depart="160.00" from="767655005" to="90136115#1"/>
    <trip id="161" depart="161.00" from="4373864" to="824591626#0"/>
    <trip id="162" depart="162.00" from="-103556353#9" to="36744334#3"/>
    <trip id="163" depart="163.00" from="103477414#0" to="90038881#5"/>
    <trip id="164" depart="164.00" from="4239953" to="767654989"/>
    <trip id="165" depart="165.00" from="4373864" to="-85754452#0"/>
    <trip id="166" depart="166.00" from="41293282" to="-34743869#0"/>
    <trip id="167" depart="167.00" from="768085403#7" to="767629905"/>
    <trip id="168" depart="168.00" from="-36744317#3" to="5208343#17"/>
    <trip id="169" depart="169.00" from="34671913#0" to="-90240777"/>
    <trip id="170" depart="170.00" from="4239528#3" to="-40857051#1"/>
    <trip id="171" depart="171.00" from="-103556353#7" to="-34992342#3"/>
    <trip id="172" depart="172.00" from="103474424#3" to="767654990"/>
    <trip id="173" depart="173.00" from="90129513#0" to="-90038865#1"/>
    <trip id="174" depart="174.00" from="34992305" to="200296480#4"/>
    <trip id="175" depart="175.00" from="90136126#0" to="34784646#1"/>
    <trip id="176" depart="176.00" from="90038897#4" to="-34744276#0"/>
    <trip id="177" depart="177.00" from="90136101#4" to="-34992285#2"/>
    <trip id="178" depart="178.00" from="90129511#0" to="-85754373#3"/>
    <trip id="179" depart="179.00" from="-34727390#1" to="34613306#2"/>
    <trip id="180" depart="180.00" from="35285508#0" to="103474426#0"/>
    <trip id="181" depart="181.00" from="34992281#0" to="34730286"/>
    <trip id="182" depart="182.00" from="155010565#0" to="34853171#1"/>
    <trip id="183" depart="183.00" from="-5208343#3" to="34992398"/>
    <trip id="184" depart="184.00" from="-103474424#3" to="90038875#4"/>
    <trip id="185" depart="185.00" from="34783222#2" to="34992412"/>
    <trip id="186" depart="186.00" from="36744317#9" to="34992346#0"/>
    <trip id="187" depart="187.00" from="103562660#0" to="-34613303#0"/>
    <trip id="188" depart="188.00" from="34992330#2" to="103478020#5"/>
    <trip id="189" depart="189.00" from="-90129513#0" to="767317906"/>
    <trip id="190" depart="190.00" from="34992402#7" to="-90136115#1"/>
    <trip id="191" depart="191.00" from="-90129504#0" to="32011783"/>
    <trip id="192" depart="192.00" from="180008207#0" to="-90129511#2"/>
    <trip id="193" depart="193.00" from="-34744276#5" to="34016655#1"/>
    <trip id="194" depart="194.00" from="90096656#1" to="34992360#0"/>
    <trip id="195" depart="195.00" from="85789066#1" to="34992297#4"/>
    <trip id="196" depart="196.00" from="-90038885#3" to="34785520"/>
    <trip id="197" depart="197.00" from="-103474424#0" to="-90096657#2"/>
    <trip id="198" depart="198.00" from="32143588#2" to="34853707"/>
    <trip id="199" depart="199.00" from="34992324#0" to="34672940#1"/>
    <trip id="200" depart="200.00" from="34613290#0" to="-36744317#7"/>
    <trip id="201" depart="201.00" from="34672938#0" to="85789009"/>
    <trip id="202" depart="202.00" from="4239528#5" to="-34853931#1"/>
    <trip id="203" depart="203.00" from="-34668049" to="34744061#3"/>
    <trip id="204" depart="204.00" from="34992301#4" to="103479372#1"/>
    <trip id="205" depart="205.00" from="50459613#2" to="36780403#4"/>
    <trip id="206" depart="206.00" from="34992342#2" to="-36780403#4"/>
    <trip id="207" depart="207.00" from="-34992313#0" to="-103560509#0"/>
    <trip id="208" depart="208.00" from="-45194817#3" to="34672945#1"/>
    <trip id="209" depart="209.00" from="767624318#1" to="-34613319#0"/>
    <trip id="210" depart="210.00" from="200296480#4" to="34992301#8"/>
    <trip id="211" depart="211.00" from="-34992298#1" to="34992381#2"/>
    <trip id="212" depart="212.00" from="34674122#1" to="-5208343#23"/>
    <trip id="213" depart="213.00" from="34992324#3" to="-103477415#2"/>
    <trip id="214" depart="214.00" from="36779591#2" to="40448104#1"/>
    <trip id="215" depart="215.00" from="-34725530" to="34613287#2"/>
    <trip id="216" depart="216.00" from="-34853707" to="90129506#2"/>
    <trip id="217" depart="217.00" from="34727799#0" to="-180022716"/>
    <trip id="218" depart="218.00" from="-5208343#14" to="767317907"/>
    <trip id="219" depart="219.00" from="34669326" to="4265726#1"/>
    <trip id="220" depart="220.00" from="34992336#1" to="90240778#4"/>
    <trip id="221" depart="221.00" from="34992276#0" to="90097130#3"/>
    <trip id="222" depart="222.00" from="85754373#3" to="34992296#3"/>
    <trip id="223" depart="223.00" from="34992402#6" to="34727390#4"/>
    <trip id="224" depart="224.00" from="5208343#8" to="34785520"/>
    <trip id="225" depart="225.00" from="85760051#1" to="36744348#1"/>
    <trip id="226" depart="226.00" from="34672939#0" to="-824591624"/>
    <trip id="227" depart="227.00" from="-5208343#10" to="34992307#1"/>
    <trip id="228" depart="228.00" from="40446939#2" to="34744276#3"/>
    <trip id="229" depart="229.00" from="34992300#0" to="-90038851#1"/>
    <trip id="230" depart="230.00" from="-34613319#0" to="-90038887#1"/>
    <trip id="231" depart="231.00" from="-754296675#0" to="103477415#6"/>
    <trip id="232" depart="232.00" from="34783222#6" to="-34785668#1"/>
    <trip id="233" depart="233.00" from="-36744341#9" to="34992372#6"/>
    <trip id="234" depart="234.00" from="34992387#0" to="-34613287#3"/>
    <trip id="235" depart="235.00" from="197358750#0" to="34784731#3"/>
    <trip id="236" depart="236.00" from="200296480#7" to="-34992413"/>
    <trip id="237" depart="237.00" from="24469753#0" to="865703882#1"/>
    <trip id="238" depart="238.00" from="34853318" to="34992380"/>
    <trip id="239" depart="239.00" from="767635094" to="40447645"/>
    <trip id="240" depart="240.00" from="126354470#0" to="-103477415#3"/>
    <trip id="241" depart="241.00" from="103556351#0" to="4016355"/>
    <trip id="242" depart="242.00" from="767629903" to="90129504#0"/>
    <trip id="243" depart="243.00" from="205834463#2" to="36779595#2"/>
    <trip id="244" depart="244.00" from="34784646#5" to="34992285#3"/>
    <trip id="245" depart="245.00" from="-36744315#1" to="-36744341#5"/>
    <trip id="246" depart="246.00" from="34016656" to="-103560512#1"/>
    <trip id="247" depart="247.00" from="103477415#6" to="34992364"/>
    <trip id="248" depart="248.00" from="180008207#4" to="-34853650#1"/>
    <trip id="249" depart="249.00" from="34671916#2" to="-34784731#2"/>
    <trip id="250" depart="250.00" from="34992299#0" to="-103560509#5"/>
    <trip id="251" depart="251.00" from="1734002#0" to="34790301#1"/>
    <trip id="252" depart="252.00" from="-103560509#3" to="34992315#0"/>
    <trip id="253" depart="253.00" from="-34784646#8" to="34672938#0"/>
    <trip id="254" depart="254.00" from="-178662634#3" to="1734002#1"/>
    <trip id="255" depart="255.00" from="-34992367#4" to="103478020#10"/>
    <trip id="256" depart="256.00" from="4016360" to="1734002#1"/>
    <trip id="257" depart="257.00" from="36779592" to="641003283#3"/>
    <trip id="258" depart="258.00" from="-5208343#20" to="-34670198#2"/>
    <trip id="259" depart="259.00" from="-103479372#1" to="34784646#8"/>
    <trip id="260" depart="260.00" from="90240787" to="103562665"/>
    <trip id="261" depart="261.00" from="34992315#3" to="40882226#5"/>
    <trip id="262" depart="262.00" from="34992315#6" to="4016358"/>
    <trip id="263" depart="263.00" from="90097130#4" to="-34992367#2"/>
    <trip id="264" depart="264.00" from="-103556353#0" to="-34790452#2"/>
    <trip id="265" depart="265.00" from="-34744276#3" to="34992344#3"/>
    <trip id="266" depart="266.00" from="34785689#7" to="-36744341#2"/>
    <trip id="267" depart="267.00" from="34992372#3" to="40447649#1"/>
    <trip id="268" depart="268.00" from="-34790626#3" to="34992292"/>
    <trip id="269" depart="269.00" from="36744341#8" to="-34744275#2"/>
    <trip id="270" depart="270.00" from="5208343#0" to="90129511#2"/>
    <trip id="271" depart="271.00" from="-34727390#1" to="-103560509#2"/>
    <trip id="272" depart="272.00" from="-90129510" to="34992360#0"/>
    <trip id="273" depart="273.00" from="90129507#0" to="200294905#4"/>
    <trip id="274" depart="274.00" from="34992396#1" to="-34667923"/>
    <trip id="275" depart="275.00" from="34992367#1" to="34992301#3"/>
    <trip id="276" depart="276.00" from="-34699277#0" to="40458464#1"/>
    <trip id="277" depart="277.00" from="767624319" to="34992281#2"/>
    <trip id="278" depart="278.00" from="-34744061#4" to="90240776#0"/>
    <trip id="279" depart="279.00" from="40857051#0" to="103560509#7"/>
    <trip id="280" depart="280.00" from="32143586#4" to="155010565#0"/>
    <trip id="281" depart="281.00" from="34699276#0" to="103556353#6"/>
    <trip id="282" depart="282.00" from="767624318#1" to="5208343#6"/>
    <trip id="283" depart="283.00" from="-34725438#1" to="90129509#0"/>
    <trip id="284" depart="284.00" from="34992301#9" to="635971824"/>
    <trip id="285" depart="285.00" from="34992388#0" to="34613310#1"/>
    <trip id="286" depart="286.00" from="36744314#0" to="90129512#1"/>
    <trip id="287" depart="287.00" from="-657004331" to="4706989#1"/>
    <trip id="288" depart="288.00" from="34783222#2" to="34674122#1"/>
    <trip id="289" depart="289.00" from="34016655#2" to="36744317#0"/>
    <trip id="290" depart="290.00" from="-656934693" to="767617781#2"/>
    <trip id="291" depart="291.00" from="5208343#9" to="-34674122#1"/>
    <trip id="292" depart="292.00" from="824591630" to="-5208343#23"/>
    <trip id="293" depart="293.00" from="34671915#0" to="34992294#6"/>
    <trip id="294" depart="294.00" from="112668202#1" to="-103560512#0"/>
    <trip id="295" depart="295.00" from="767624320" to="-34992288#3"/>
    <trip id="296" depart="296.00" from="-34992380" to="4239954#2"/>
    <trip id="297" depart="297.00" from="103477424#2" to="824591624"/>
    <trip id="298" depart="298.00" from="34992374#0" to="-90038857#1"/>
    <trip id="299" depart="299.00" from="-103478020#0" to="90096661#2"/>
    <trip id="300" depart="300.00" from="-34669314" to="34992420"/>
    <trip id="301" depart="301.00" from="34672945#5" to="40446935#4"/>
    <trip id="302" depart="302.00" from="34992367#1" to="34992317#1"/>
    <trip id="303" depart="303.00" from="34672947#3" to="4239529#2"/>
    <trip id="304" depart="304.00" from="-34674122#1" to="-36744342#0"/>
    <trip id="305" depart="305.00" from="34992367#3" to="-90240779#1"/>
    <trip id="306" depart="306.00" from="34853168#0" to="34672943#1"/>
    <trip id="307" depart="307.00" from="34746046#0" to="34613287#3"/>
    <trip id="308" depart="308.00" from="36744341#4" to="103478020#7"/>
    <trip id="309" depart="309.00" from="34992381#0" to="-85789161"/>
    <trip id="310" depart="310.00" from="-5208343#19" to="-34784614#0"/>
    <trip id="311" depart="311.00" from="-34992288#1" to="-34746098#1"/>
    <trip id="312" depart="312.00" from="34783116#2" to="40447413#3"/>
    <trip id="313" depart="313.00" from="-34992277#4" to="-36744334#3"/>
    <trip id="314" depart="314.00" from="34672943#0" to="357556159"/>
    <trip id="315" depart="315.00" from="90136117#0" to="34782844#1"/>
    <trip id="316" depart="316.00" from="-824591633" to="-34727390#1"/>
    <trip id="317" depart="317.00" from="-34992288#4" to="-40857051#1"/>
    <trip id="318" depart="318.00" from="-34853926#0" to="-103478020#8"/>
    <trip id="319" depart="319.00" from="34782844#3" to="-90038851#1"/>
    <trip id="320" depart="320.00" from="90136111#1" to="34785689#0"/>
    <trip id="321" depart="321.00" from="34992371#1" to="-34784646#9"/>
    <trip id="322" depart="322.00" from="767662037" to="34692003#0"/>
    <trip id="323" depart="323.00" from="768085411" to="34826624#0"/>
    <trip id="324" depart="324.00" from="34672937#2" to="34667923"/>
    <trip id="325" depart="325.00" from="-34992277#2" to="-200294905#0"/>
    <trip id="326" depart="326.00" from="90096656#2" to="34672945#6"/>
    <trip id="327" depart="327.00" from="5208343#14" to="200296480#6"/>
    <trip id="328" depart="328.00" from="-34613298#1" to="34992301#8"/>
    <trip id="329" depart="329.00" from="-200294905#0" to="-34790301#1"/>
    <trip id="330" depart="330.00" from="34785689#5" to="-90136130"/>
    <trip id="331" depart="331.00" from="90240783#1" to="-34746046#1"/>
    <trip id="332" depart="332.00" from="40446939#0" to="34992288#3"/>
    <trip id="333" depart="333.00" from="4239483#3" to="-36780403#6"/>
    <trip id="334" depart="334.00" from="34744061#1" to="34671913#3"/>
    <trip id="335" depart="335.00" from="34613290#1" to="767629908"/>
    <trip id="336" depart="336.00" from="90240780#1" to="-90240777"/>
    <trip id="337" depart="337.00" from="34992297#4" to="34992294#4"/>
    <trip id="338" depart="338.00" from="36744317#6" to="90096661#1"/>
    <trip id="339" depart="339.00" from="-34992356#1" to="-36744317#2"/>
    <trip id="340" depart="340.00" from="34992328#3" to="-34790633"/>
    <trip id="341" depart="341.00" from="-34853509" to="-34667922#0"/>
    <trip id="342" depart="342.00" from="-103474424#5" to="34671913#3"/>
    <trip id="343" depart="343.00" from="34992275#0" to="-90129503"/>
    <trip id="344" depart="344.00" from="-36744341#9" to="34992395#1"/>
    <trip id="345" depart="345.00" from="34992381#0" to="34671915#2"/>
    <trip id="346" depart="346.00" from="34992366#1" to="90038875#0"/>
    <trip id="347" depart="347.00" from="4239466#0" to="34992300#8"/>
    <trip id="348" depart="348.00" from="34992328#5" to="90038887#0"/>
    <trip id="349" depart="349.00" from="32116239#1" to="34784746"/>
    <trip id="350" depart="350.00" from="34992314#0" to="90025761#1"/>
    <trip id="351" depart="351.00" from="5208343#22" to="-34613306#1"/>
    <trip id="352" depart="352.00" from="-34790614" to="-90240782#1"/>
    <trip id="353" depart="353.00" from="36744348#0" to="34790452#4"/>
    <trip id="354" depart="354.00" from="-89834012" to="-34784646#5"/>
    <trip id="355" depart="355.00" from="34992366#4" to="34992388#0"/>
    <trip id="356" depart="356.00" from="90096657#1" to="34725438#1"/>
    <trip id="357" depart="357.00" from="34674122#0" to="-34670092"/>
    <trip id="358" depart="358.00" from="-155010565#1" to="34613294"/>
    <trip id="359" depart="359.00" from="-90240779#0" to="-641899175#1"/>
    <trip id="360" depart="360.00" from="-34674117#1" to="90129509#2"/>
    <trip id="361" depart="361.00" from="641003283#4" to="34853168#0"/>
    <trip id="362" depart="362.00" from="90097131#1" to="90240787"/>
    <trip id="363" depart="363.00" from="34992342#1" to="-85754625"/>
    <trip id="364" depart="364.00" from="-155010565#2" to="40446935#0"/>
    <trip id="365" depart="365.00" from="34672937#4" to="34992326#2"/>
    <trip id="366" depart="366.00" from="90038854#4" to="-34992288#2"/>
    <trip id="367" depart="367.00" from="34853648#1" to="34992304#7"/>
    <trip id="368" depart="368.00" from="34674117#0" to="-34692004#0"/>
    <trip id="369" depart="369.00" from="103478020#9" to="103479370#0"/>
    <trip id="370" depart="370.00" from="34992339#4" to="767629904#0"/>
    <trip id="371" depart="371.00" from="103474424#6" to="34992372#6"/>
    <trip id="372" depart="372.00" from="-85760051#1" to="90096658#3"/>
    <trip id="373" depart="373.00" from="45194817#5" to="34785572#1"/>
    <trip id="374" depart="374.00" from="34668049" to="103474426#2"/>
    <trip id="375" depart="375.00" from="-90240781" to="90136101#1"/>
    <trip id="376" depart="376.00" from="180008207#4" to="34744061#1"/>
    <trip id="377" depart="377.00" from="90240778#4" to="34992330#1"/>
    <trip id="378" depart="378.00" from="34784614#1" to="32143586#4"/>
    <trip id="379" depart="379.00" from="-34992281#2" to="104708764"/>
    <trip id="380" depart="380.00" from="36780403#2" to="34992300#8"/>
    <trip id="381" depart="381.00" from="4016358" to="-34992381#4"/>
    <trip id="382" depart="382.00" from="34784731#2" to="90038880#3"/>
    <trip id="383" depart="383.00" from="34390935" to="34992386"/>
    <trip id="384" depart="384.00" from="-34744064#0" to="90136106#2"/>
    <trip id="385" depart="385.00" from="34992285#1" to="-5208343#15"/>
    <trip id="386" depart="386.00" from="-34790170#1" to="34785613#1"/>
    <trip id="387" depart="387.00" from="34784765#1" to="-34699276#0"/>
    <trip id="388" depart="388.00" from="90240782#0" to="90038851#3"/>
    <trip id="389" depart="389.00" from="34671913#2" to="-34744276#5"/>
    <trip id="390" depart="390.00" from="544543729" to="34722439#1"/>
    <trip id="391" depart="391.00" from="34992402#0" to="34727499#1"/>
    <trip id="392" depart="392.00" from="-754439890" to="641876755"/>
    <trip id="393" depart="393.00" from="90136124#2" to="-5208343#23"/>
    <trip id="394" depart="394.00" from="34784743#2" to="179767738#0"/>
    <trip id="395" depart="395.00" from="90038869#2" to="34727432#2"/>
    <trip id="396" depart="396.00" from="824591626#2" to="767654989"/>
    <trip id="397" depart="397.00" from="-767617781#3" to="4239528#4"/>
    <trip id="398" depart="398.00" from="200296480#5" to="90038891#0"/>
    <trip id="399" depart="399.00" from="34699277#1" to="5208343#24"/>
    <trip id="400" depart="400.00" from="-824591632" to="-90136111#0"/>
    <trip id="401" depart="401.00" from="34853845#0" to="90240786#3"/>
    <trip id="402" depart="402.00" from="34672947#0" to="-34790301#0"/>
    <trip id="403" depart="403.00" from="34783222#3" to="103560509#3"/>
    <trip id="404" depart="404.00" from="34784765#0" to="34784743#1"/>
    <trip id="405" depart="405.00" from="34669314" to="103477423#0"/>
    <trip id="406" depart="406.00" from="-34992284#1" to="34992381#4"/>
    <trip id="407" depart="407.00" from="34790387#0" to="-45194817#2"/>
    <trip id="408" depart="408.00" from="40448104#0" to="-155063368#1"/>
    <trip id="409" depart="409.00" from="36744341#1" to="34992393#0"/>
    <trip id="410" depart="410.00" from="45194817#0" to="180008205#2"/>
    <trip id="411" depart="411.00" from="34992330#1" to="5208343#24"/>
    <trip id="412" depart="412.00" from="90136124#3" to="34692020"/>
    <trip id="413" depart="413.00" from="-104708764" to="34725539"/>
    <trip id="414" depart="414.00" from="34853926#2" to="767655007#1"/>
    <trip id="415" depart="415.00" from="768824334" to="34667922#1"/>
    <trip id="416" depart="416.00" from="34744064#3" to="34672937#0"/>
    <trip id="417" depart="417.00" from="34992405#3" to="32011912#1"/>
    <trip id="418" depart="418.00" from="34992324#0" to="-34790615"/>