<?xml version="1.0" encoding="UTF-8"?>

<!-- generated on 02/25/21 17:25:34 by Eclipse SUMO duarouter Version 1.8.0
<configuration xmlns:xsi="http://www.w3.org/2001/XMLSchema-instance" xsi:noNamespaceSchemaLocation="http://sumo.dlr.de/xsd/duarouterConfiguration.xsd">

    <input>
        <net-file value="map_6.net.xml"/>
        <route-files value="trips.trips.xml"/>
    </input>

    <output>
        <output-file value="map_6.rou.xml"/>
        <alternatives-output value="map_6.rou.alt.xml"/>
    </output>

    <time>
        <begin value="0"/>
        <end value="3000"/>
    </time>

    <report>
        <no-warnings value="true"/>
        <ignore-errors value="true"/>
        <no-step-log value="true"/>
    </report>

</configuration>
-->

<routes xmlns:xsi="http://www.w3.org/2001/XMLSchema-instance" xsi:noNamespaceSchemaLocation="http://sumo.dlr.de/xsd/routes_file.xsd">
    <vehicle id="0" depart="0.00">
        <route edges="2526619#0 -2526619#0 140276215#0 140276215#1 -30069311 -4802562#4 -30069219 2526622#2 2526622#3 1303754#2 1303754#3 1303754#4 8114058 24229923 351462523 8114059 8114315 138301896 138301897 163444828#4 163444828#5 163444827 -159742022 -159741569 -159741568 -37281410#1 -37281410#0 -37281409 -1522775#4 -1522775#3 -1522775#2 -1522775#1 -1522775#0 -215822027#2 -215822027#1 -215822027#0 -215822019 -37875051#9 -37875051#8 -37875051#7 -37875051#6 -37875051#5 -37875051#4 -37875051#3 -37875051#2 -37875051#1 -37875051#0 4001213#0 4001213#1 4001213#2 4001213#3 4001213#4 37875175#0 37875175#1 163253166#0 163253166#1 163253166#2 163253166#3 163253166#4 163253166#5 163253166#6 1303674#0 -1303674#0"/>
    </vehicle>
    <vehicle id="1" depart="1.00">
        <route edges="-43131421#1 43131421#1 -2405163 -2795179 -48959557#2 -48959557#1 -48959557#0 -499722989 99019259#0 99019259#1 110676297#7 110676297#8 110676297#0 110676297#1 110676297#2 110676297#3 1258397#0 1258397#1 1258397#2 1258397#3 213752641#0 213752641#1 213752641#2 474417096 133288684#0 133288684#1 133288685 229181597#0 229181597#1 229181597#2 99019203 469987721 154344507 154344506 99019255 99019217#0 99019217#1 99019217#2 99019217#3 99019217#4 99019217#5 99019217#6 -4565969 -4565970#1 -4565970#0 -99019245#3 -99019245#2 -99019245#1 -99019245#0 -99019208 -392847626 -37921607#5 -37921607#4 -37921607#3 -37921607#2 -37921607#1 -37921607#0 -8121601#8 -8121601#7 -8121601#6 -8121601#5 -8121601#4 -8121601#3 -8121601#2 -8121601#1 -8121601#0 37875046 37921960#0 37921960#1 37921960#2 37921960#3 37921960#4 37921960#5 37921960#6 -37875047#2 -37875047#1 -37875047#0 -163253166#6 -163253166#5 4266997#0 4266997#1 4266997#2 4266997#3 4266990 8137787#1 4266991#1 4266991#2 4266992#0 4266994#0 -4266994#0"/>
    </vehicle>
    <vehicle id="2" depart="2.00">
        <route edges="4071468#0 -4071468#0 137275643#1 -4071441#6 -4071441#5 -4071441#4 -4071441#3 -4071441#2 -4071441#1 4071441#1"/>
    </vehicle>
    <vehicle id="3" depart="3.00">
        <route edges="4673191#0 -4673191#0 -37875048#0 -15147017 -10432876#1 -10432876#0 -4020744#4 -4020744#3 -4539021#3 -4539021#2 -4539021#1 -4539021#0 -163253166#1 -163253166#0 -37875175#1 -37875175#0 -4001213#4 -4001213#3 -4001213#2 -4001213#1 -4001213#0 37875051#0 37875051#1 37875051#2 37875051#3 37875051#4 37875051#5 37875051#6 37875051#7 37875051#8 37875051#9 215822032#0 215822032#1 1522775#1 1522775#2 1522775#3 1522775#4 37281409 37281410#0 37281410#1 159741568 159741569 159742022 138301856 163444828#0 163444828#1 163444828#2 163444830 -138301896 -8114315 -8114059 24229925 79366468#0 79366468#1 24229924#0 24229924#1 24229924#2 4802557#0 4802557#1 4802557#2 4802557#3 4802557#4 4802557#5 107169546 107169510#0 107169510#1 230992311#0 230992311#1 230992311#2 230992311#3 230992311#4 230992311#5 -230992311#5"/>
    </vehicle>
    <vehicle id="4" depart="4.00">
        <route edges="-48959557#1 -48959557#0 -499722989 99019259#0 99019259#1 110676297#7 110676297#8 110676297#0 110676297#1 110676297#2 110676297#3 1258397#0 1258397#1 1258397#2 1258397#3 213752641#0 213752641#1 213752641#2 213752641#3 213752641#4 213752641#5 99019206#0 99019206#1 99019206#2 110676303 110676298 1258519#0 4730916 133288690 133288689#0 133288689#1 -133288689#1"/>
    </vehicle>
    <vehicle id="5" depart="5.00">
        <route edges="-4211185#1 -4211185#0 -4211184#3 -4211184#2 -4211184#1 -4211184#0 392847626 99019208 99019245#0 99019245#1 99019245#2 99019245#3 4565970#0 4565970#1 4565969 -99019217#6 -99019217#5 -99019217#4 -99019217#3 -99019217#2 -99019217#1 -99019217#0 4565967 154344505#0 154344505#1 154344505#2 114709076#0 114709076#1 -229181597#2 -229181597#1 -229181597#0 -133288685 120858387#0 120858387#1 8121513 213752641#4 213752641#5 99019206#0 99019206#1 99019206#2 110676303 120859456#0 120859456#1 120859456#2 120859456#3 120859456#4 120859456#5 133288696 120860019#0 120860019#1 120860019#2 353232956#0 -15147019#18 -15147019#17 -15147019#16 -15147019#15 -15147019#14 -15147019#13 15147019#13"/>
    </vehicle>
    <vehicle id="6" depart="6.00">
        <route edges="-1259062#1 -1259062#0 474176205 120860019#1 120860019#2 353232956#0 353232956#1 1258567#0 1258567#1 1258567#2 1258567#3 1258567#4 133288697#0 133288697#1 133288697#2 1258519#0 1258519#1 120858643#0 120858643#1 120858388 474417096 133288684#0 133288684#1 133288685 229181597#0 229181597#1 229181597#2 99019203 469987721 154344507 154344506 99019255 99019217#0 99019217#1 99019217#2 99019217#3 99019217#4 99019217#5 99019217#6 -4565969 -4565970#1 -4565970#0 -99019245#3 -99019245#2 -99019245#1 -99019245#0 -99019208 -392847626 4211184#0 4211184#1 4211184#2 4211184#3 -4211184#3"/>
    </vehicle>
    <vehicle id="8" depart="8.00">
        <route edges="-4211206#0 4211184#11 4211184#12 4211184#13 4211184#14 4211184#15 4211184#16 4211184#17 4211184#18 4211184#19 4489892#0 4489892#1 4489892#2 4489892#3 4489892#4 4489892#5 4489890#0 4489890#1 4489890#2 4489890#3 4489890#4 4267137#0 4267137#1 4267137#2 4267137#3 4267137#4 8137790#0 8137790#1 8137790#2 8137790#3 8137791 37875051#0 37875051#1 37875051#2 37875051#3 37875051#4 37875051#5 37875051#6 37875051#7 37875051#8 37875051#9 215822032#0 215822032#1 1522775#1 1522775#2 1522775#3 1522775#4 37281409 37281410#0 37281410#1 159741568 159741569 159742022 138301856 163444828#0 163444828#1 163444828#2 163444830 -138301896 -8114315 -8114059 24229925 79366468#0 79366468#1 24229924#0 24229924#1 24229924#2 4802557#0 4802557#1 4802557#2 4802557#3 4802557#4 4802557#5 107169546 107169510#0 107169510#1 -4803064 -4802563 -4802892#2 4802897#0 4802897#1 4803062 4802896#1 4802896#2 35037446 35037447 232065297 232065296 2988505#0 2988505#1"/>
    </vehicle>
    <vehicle id="9" depart="9.00">
        <route edges="4326619#0 -4326619#0 -37875051#2 -37875051#1 -37875051#0 4001213#0 4001213#1 4001213#2 4001213#3 4001213#4 37875175#0 37875175#1 163253166#0 -163253166#0 8429008 749690001#0 749690001#1 10432759#0 -10432759#0"/>
    </vehicle>
    <vehicle id="10" depart="10.00">
        <route edges="4323384#1 -4267137#4 -4267137#3 -4267137#2 -4267137#1 -4267137#0 -4489890#4 -4489890#3 -4489890#2 -4489890#1 -4489890#0 -4489892#5 -4489892#4 -4489892#3 -4489892#2 -4489892#1 -4489892#0 -4211184#19 -4211184#18 -4211184#17 -4211184#16 -4211184#15 -4211184#14 -4211184#13 -4211184#12 -4211184#11 -4211184#10 -4211184#9 -4211184#8 -4211184#7 -4211178#3 4211180#0 4211180#1"/>
    </vehicle>
    <vehicle id="11" depart="11.00">
        <route edges="-4495556#3 -4495556#2 -4495556#1 -4495556#0 -4071441#2 -4071441#1 -4071441#0 -8121601#8 -8121601#7 -8121601#6 -8121601#5 -8121601#4 -8121601#3 -8121601#2 -8121601#1 -8121601#0 37875046 37921960#0 37921960#1 37921960#2 37921960#3 37921960#4 37921960#5 37921960#6 -37875047#2 -37875047#1 -37875047#0 -163253166#6 -163253166#5 -163253166#4 -163253166#3 -163253166#2 -163253166#1 -163253166#0 -37875175#1 -37875175#0 -4001213#4 -4001213#3 -4001213#2"/>
    </vehicle>
    <vehicle id="12" depart="12.00">
        <route edges="8121601#6 8121601#7 8121601#8 4071441#0 4071441#1 4071441#2 4071441#3 4071441#4 4071441#5 4071441#6 163440657#0 163440657#1 4071450#0 4071450#1 4071450#2 4071450#3 4071450#4 4071450#5 4071450#6 4071450#7 4071450#8 4071450#9 -8141574#3 -8141574#2 -8141574#1 -8141574#0 4345080#0 4345080#1 -8141572 15147016#0 15147016#1 -8141573#5 -8141573#4 -8141573#3 4673373#0 -4673373#0"/>
    </vehicle>
    <vehicle id="13" depart="13.00">
        <route edges="-224661527#5 -224661527#4 -224661527#3 -224661527#2 -224661527#1 -224661527#0 -4019703 4019704#0 4019704#1 4019704#2 4019704#3 4019704#4 4019704#5 77466312#0 77466312#1 41422485 41422486#0 41422486#1 43129507 -218151174 -218151176#1 -218151176#0 218151170#0 218151170#1 218151170#2 218151170#3 347738480#0 347738480#1 43129514#0 43129514#1 43129514#2 43129514#3 43129514#4 60961258#3 60961258#4 101883693#0 101883693#1 101883693#2 101883693#3 101883693#4 353232954#1 353232955 1259192#0 1259192#1 1259579 352980806 130896896 41422489 41422490#0 41422490#1 474197160#0 474197160#1 24230726 24230727#0 24230727#1 130896897 100120717 120588526#2 2483238 199815849#0 199815849#1 199815849#2 352385005#2 352385001#0 352385001#1 393056532 352384998 220457265 351732055 98727911#0 98727911#1 351732050 875771792 61726615#0 61726615#1 4368566 4368570#0 4368570#1 4368570#2 -164413051#3 -164413051#2 -164413051#1 -164413051#0 -2988471#1 -2988471#0"/>
    </vehicle>
    <vehicle id="14" depart="14.00">
        <route edges="4489891#0 -4489891#0 4489890#2 4489890#3 4489890#4 4267137#0 4267137#1 4267137#2 4267137#3 4267137#4 8137790#0 8137790#1 8137790#2 8137790#3 8137791 4001213#0 4001213#1 4001213#2 4001213#3 4001213#4 -164413053#3 -164413053#2 -164413053#1 -164413053#0 -220457570 -846228366#4 -846228366#3 -846228366#2 -846228366#1 -846228366#0 -210604545#5 -210604545#4 -210604545#3 -210604545#2 -210604545#1 -210604545#0 137134810#0 137134810#1 352384998 220457265 351732055 2483235 352385005#0 2483236#0 2483236#1 2483236#2 199815848 120588526#4 120588526#5 120588526#0 8121517 -130896897 -24230727#1 -24230727#0 -24230726 -474197160#1 -474197160#0 -41422490#1 -41422490#0 -41422489 -130896896 -352980806 -1259579 353232954#0 -101883693#4 -101883693#3 -101883693#2 -101883693#1 -101883693#0 60961258#5 60961258#0 60961258#1 60961258#2 -43129514#4 -43129514#3 -43129514#2 -43129514#1 -43129514#0 -347738480#1 347738480#1"/>
    </vehicle>
    <vehicle id="15" depart="15.00">
        <route edges="4323388#0 -4323388#0 8114153#2 8114153#3 8114153#4 -215822037#2 -215822037#1 -215822037#0 -4267147#5 -4267147#4 -4267147#3 4267148#0 4267148#1 -8137790#0 -4267137#4 -4267137#3 -4267137#2 -4267137#1 -4267137#0 -4489890#4 -4489890#3 -4489890#2 -4489890#1 -4489890#0 -4489892#5 -4489892#4 -4489892#3 -4489892#2 -4489892#1 -4489892#0 4225086#0"/>
    </vehicle>
    <vehicle id="16" depart="16.00">
        <route edges="126146443 126146429 173930498#0 173930498#1 173930498#2 173930498#3 4019704#0 4019704#1 4019704#2 4019704#3 4019704#4 4019704#5 77466312#0 77466312#1 41422485 41422486#0 41422486#1 43129507 -218151174 -218151176#1 -218151176#0 218151170#0 218151170#1 218151170#2 218151170#3 347738480#0 347738480#1 43129514#0 43129514#1 43129514#2 43129514#3 43129514#4 60961258#3 60961258#4 101883693#0 101883693#1 101883693#2 101883693#3 101883693#4 353232954#1 353232955 1259192#0 1259192#1 1259579 352980806 130896896 41422489 41422490#0 41422490#1 474197160#0 474197160#1 24230726 24230727#0 24230727#1 130896897 100120717 120588526#2 2483238 199815849#0 199815849#1 199815849#2 352385005#2 352385001#0 352385001#1 1303581 210604545#0 210604545#1 210604545#2 210604545#3 210604545#4 210604545#5 846228366#0 846228366#1 846228366#2 846228366#3 846228366#4 220457570 164413053#0 164413053#1 164413053#2 164413053#3 -4001213#4 -4001213#3 -4001213#2 -4001213#1 -4001213#0 -8137791 8137791"/>
    </vehicle>
    <vehicle id="17" depart="17.00">
        <route edges="-4604415 -4604414#0 -4604412#1 -4604412#0 -1258512#5 -1258512#4 183450459 99019206#1 99019206#2 110676303 110676298 1258519#0 1258519#1 120858643#0 120858643#1 120858643#2 120858643#3 469980574#0 469980574#1 213752643#0 213752643#1"/>
    </vehicle>
    <vehicle id="18" depart="18.00">
        <route edges="4345149#0 -4345149#0 -4345101#7 -4345101#6 -4345101#5 -4345101#4 -4345101#3 -4345101#2 -4345101#1 -4345101#0 4345080#1 -8141572 15147016#0 15147016#1 -8141573#5 -8141573#4 -8141573#3 -8141573#2 -8141573#1 -8141573#0 -8097622 37875176#0 37875176#1 -4345473#8 -4345473#7 -4345473#6 -4345473#5 -4345473#4 -4345473#3 -4345473#2 -4345473#1 -4345473#0 37875048#0 37875048#1 37875048#2 4566129 4566127#0 4566127#1 4566127#2 4566127#3 4566127#4 4566127#5 1303675#0 1303675#1 1303675#2 474176204 474176206 224662518#0 224662518#1 224662518#2 224662518#3 224662518#4 474176205 120860019#1 474429874#0 474429874#1 1259190#0 1259190#1 1259190#2 1259190#3 1259192#0 1259192#1 353232954#0 -101883693#4 -101883693#3 -101883693#2 -101883693#1 -101883693#0 60961258#5 60961258#0 60961258#1 60961258#2 -43129514#4 218154561 218154560#1 360919640#0 360919641"/>
    </vehicle>
    <vehicle id="19" depart="19.00">
        <route edges="4539021#0 -4539021#0 -163253166#1 -163253166#0 -37875175#1 -37875175#0 -4001213#4 -4001213#3 -4001213#2 -4001213#1 -4001213#0 37875051#0 37875051#1 37875051#2 37875051#3 37875051#4 37875051#5 37875051#6 37875051#7 37875051#8 37875051#9 215822032#0 215822032#1 1522775#1 1522775#2 1522775#3 1522775#4 37281409 37281410#0 37281410#1 159741568 159741569 159742022 138301856 163444828#0 163444828#1 163444828#2 163444830 -138301896 -8114315 -8114059 24229925 79366468#0 79366468#1 24229924#0"/>
    </vehicle>
    <vehicle id="20" depart="20.00">
        <route edges="3999797#0 -3999797#0 101878802#9 -101883693#2 -101883693#1 -101883693#0 60961258#5 60961258#0 60961258#1 60961258#2 -43129514#4 -43129514#3 -43129514#2 -43129514#1 -43129514#0 -347738480#1 -347738480#0 15147019#0 15147019#1 15147019#2 15147019#3 15147019#4 15147019#5 15147019#6 -15147019#6"/>
    </vehicle>
    <vehicle id="21" depart="21.00">
        <route edges="-4215307#3 4215307#3 4001209#5 4001209#6 15147019#15 15147019#16 15147019#17 15147019#18 353232956#1 353232957 120860019#0 -474176205 -224662518#4 -224662518#3 -224662518#2 -224662518#1 -224662518#0 -474176206 -474176204 -1303675#2 -1303675#1 -1303675#0 -4566127#5 -4566127#4 -4566127#3 -4566127#2 -4566127#1 -4566127#0 -4566129 -37875048#2 -37875048#1 -37875048#0 -15147017 -10432876#1 -10432876#0 -1303674#3 -1303674#2 -1303674#1 -1303674#0 37875047#0 37875047#1 37875047#2 4001211#0 4001211#1 4001211#2 4001211#3 37875050#0 37875050#1 37875050#2 37875050#3 37875050#4 37875050#5 37875050#6 37875050#7 37875050#8 37875050#9 37875050#10 4489892#0 4489892#1 -4489892#1"/>
    </vehicle>
    <vehicle id="22" depart="22.00">
        <route edges="-210604545#3 -210604545#2 -210604545#1 -210604545#0 137134810#0 137134810#1 352384998 8114095#0 8114095#1 8114095#2 135459050 135459053 351462528#0 351462528#1 215822029#0 215822029#1 -215822019 -37875051#9 -37875051#8 -37875051#7 8114153#0 8114153#1 8114153#2 8114153#3 8114153#4 -215822037#2 -215822037#1 -215822037#0 -4267147#5 -4267147#4"/>
    </vehicle>
    <vehicle id="23" depart="23.00">
        <route edges="-2405116#1 -2405116#0 8123721#0 8123721#1 110676297#3 1258397#0 1258397#1 1258397#2 1258397#3 213752641#0 213752641#1 213752641#2 213752641#3 213752641#4 213752641#5 99019206#0 99019206#1 99019206#2 110676303 120859456#0 120859456#1 120859456#2 120859456#3 120859456#4 120859456#5 133288696 120860019#0 -474176205 -224662518#4 -224662518#3 -224662518#2 -224662518#1 -224662518#0 -474176206 -474176204 -1303675#2 -1303675#1 -1303675#0 -4566127#5 -4566127#4 -4566127#3 -4566127#2 -4566127#1 -4566127#0 -4566129 -37875048#2 -37875048#1 -37875048#0 4345473#0 4345473#1 4345473#2 4345473#3 4345515#0 -4345515#0"/>
    </vehicle>
    <vehicle id="25" depart="25.00">
        <route edges="-4566127#4 -4566127#3 -4566127#2 -4566127#1 -4566127#0 -4566129 -37875048#2 -37875048#1 -37875048#0 -15147017 -10432876#1 -10432876#0 -1303674#3 -1303674#2 -1303674#1 -1303674#0 37875047#0 37875047#1 37875047#2 4001211#0 4001211#1 4001211#2 4001211#3 37875050#0 37875050#1 37875050#2 37875050#3 37875050#4 37875050#5 -4224940#1"/>
    </vehicle>
    <vehicle id="26" depart="26.00">
        <route edges="-43129384#3 -43129384#2 -43129380#1 -43129380#0 -2405164#1 -2405164#0 8123724#0 8123724#1 8123724#2 43131419 -8123723#6 -8123723#5 -8123723#4 -8123723#3 -8123723#2 -8123723#1 -8123723#0 8123722#0 8123722#1 8123722#2 8123722#3 43131421#0 43131421#1 -2405163 -2795179 -48959557#2 -48959557#1 -48959557#0 -499722989 99019259#0 99019259#1 110676297#7 110676297#8 110676297#0 110676297#1 110676297#2 110676297#3 1258397#0 1258397#1 1258397#2 1258397#3 213752641#0 213752641#1 213752641#2 474417096 133288684#0 133288684#1 133288685 229181597#0 229181597#1 229181597#2 99019203 469987721 154344507 154344506 99019255 99019217#0 99019217#1 99019217#2 99019217#3 99019217#4 99019217#5 99019217#6 -4565969 -4565970#1 -4565970#0 -99019245#3 -99019245#2 -99019245#1 -99019245#0 -99019208 -392847626 -37921607#5 -37921607#4 -37921607#3 -37921607#2 -37921607#1 -37921607#0 4071441#0 4071441#1 4071441#2 4071441#3 4071441#4 4071441#5 4071441#6 163440657#0 163440657#1 4071450#0 4071450#1 4071450#2 4071450#3 4071450#4 4071450#5 4071450#6 4071450#7 4071450#8 4071450#9 -8141574#3 -8141574#2 -8141574#1 -8141574#0 4345080#0 4345080#1 -8141572 15147016#0 15147016#1 -8141573#5 -8141573#4 -8141573#3 -8141573#2 -8141573#1 -8141573#0 -8097622 8097622"/>
    </vehicle>
    <vehicle id="27" depart="27.00">
        <route edges="30647177#3 30647177#4 30647177#5 200325191#3 -164413050#2 -164413050#1 -164413050#0 -299441712#1 -299441712#0 -4565969 -4565970#1 -4565970#0 -99019245#3 -99019245#2 -99019245#1 -99019245#0 -99019208 -392847626 -37921607#5 -37921607#4 -37921607#3 -37921607#2 -37921607#1 -37921607#0 -8121601#8 -8121601#7 -8121601#6 -8121601#5 -8121601#4 -8121601#3 -8121601#2 -8121601#1 -8121601#0 37875046 37921960#0 37921960#1 37921960#2 37921960#3 37921960#4 37921960#5 37921960#6 -37875047#2 -37875047#1 -37875047#0 -163253166#6 -163253166#5 -163253166#4 -163253166#3 -163253166#2 -163253166#1 -163253166#0 -37875175#1 -37875175#0 -164413053#3 -164413053#2 -164413053#1 -164413053#0 -220457570 -846228366#4 -846228366#3 -846228366#2 -846228366#1 -846228366#0 -210604545#5 -210604545#4 -210604545#3 -210604545#2 -210604545#1 -210604545#0 137134810#0 137134810#1 352384998 220457265 351732055 98727911#0 98727911#1 351732050"/>
    </vehicle>
    <vehicle id="28" depart="28.00">
        <route edges="-400647702 -4704496#0 4539621#9 -8132530#4 -8132530#3 -8132530#2 -8132530#1 -8132530#0 4020744#0 4020744#1 4020744#2 4020744#3 4020744#4 -1303674#3 -1303674#2 -1303674#1 -1303674#0 37875047#0 37875047#1 37875047#2 4001211#0 4001211#1 4001211#2 4001211#3 37875050#0 37875050#1 37875050#2 37875050#3 37875050#4 37875050#5 37875050#6 37875050#7 37875050#8 37875050#9 37875050#10 4489892#0 4489892#1 4489892#2 4225084"/>
    </vehicle>
    <vehicle id="29" depart="29.00">
        <route edges="-4001209#0 4001209#0 4001209#1 4001209#2 4001209#3 4001209#4 4001209#5 4001209#6 15147019#15 15147019#16 15147019#17 15147019#18 353232956#1 353232957 120860019#0 120860019#1 474429874#0 474429874#1 1259190#0 1259190#1 1259190#2 1259190#3 1259192#0 1259192#1 1259579 352980806 130896896 41422489 41422490#0 41422490#1 474197160#0 474197160#1 24230726 24230727#0 24230727#1 130896897 100120717 120588526#2 2483238 199815849#0 199815849#1 199815849#2 352385005#2 352385001#0 352385001#1 393056532 352384998 8114095#0 8114095#1 8114095#2 135459050 135459053 351462528#0 351462528#1 215822029#0 215822029#1 -215822019 -37875051#9 -37875051#8 -37875051#7 8114153#0 8114153#1 -8114153#1"/>
    </vehicle>
    <vehicle id="30" depart="30.00">
        <route edges="98724275#0 -98724275#0 102284088 -94551336 -4803066#4 -230992311#5 -230992311#4 -230992311#3 -230992311#2 -230992311#1 -230992311#0 -107169510#1 -107169510#0 -107169546 -4802557#5 -4802557#4 -4802557#3 -4802557#2 -4802557#1 -4802557#0 -24229924#2 -24229924#1 -24229924#0 351462525#0 351462525#1 351462523 8114059 8114315 138301896 138301897 163444828#4 163444828#5 163444827 -159742022 -159741569 -159741568 -37281410#1 -37281410#0 -37281409 -1522775#4 -1522775#3 -1522775#2 -1522775#1 -1522775#0 -215822027#2 -215822027#1 -215822027#0 -215822019 -37875051#9 -37875051#8 -37875051#7 -37875051#6 -37875051#5 -37875051#4 -37875051#3 -37875051#2 -37875051#1 -37875051#0 4001213#0 4001213#1 4001213#2 4001213#3 4001213#4 37875175#0 37875175#1 163253166#0 163253166#1 4539021#0 4539021#1 4539021#2 4539021#3 4020744#3 4020744#4 10432876#0 10432876#1 15147017 4345473#0 4345473#1 4345473#2 4345473#3 4345473#4 4345473#5 4345473#6 4345473#7 4345473#8 8097621 37875176#0"/>
    </vehicle>
    <vehicle id="31" depart="31.00">
        <route edges="137275643#0 137275643#1 163440657#0 4071455#0 4071455#1 4071455#2 4071455#3 4071455#4 4071455#5"/>
    </vehicle>
    <vehicle id="32" depart="32.00">
        <route edges="4440102 -4440014#0 -347738480#1 -347738480#0 15147019#0 15147019#1 15147019#2 15147019#3 15147019#4 15147019#5 15147019#6 15147019#7 15147019#8 15147019#9 15147019#10 15147019#11 15147019#12 15147019#13 15147019#14 15147019#15 15147019#16 15147019#17 15147019#18 353232956#1 353232957 120860019#0 -474176205 -224662518#4 -224662518#3 -224662518#2 -224662518#1 -224662518#0 -474176206 -474176204 -1303675#2 -1303675#1 -1303675#0 -4566127#5 -4566127#4 -4566127#3 -4566127#2 -4566127#1 -4566127#0 -4566129 -37875048#2 -37875048#1 -37875048#0 -15147017 -10432876#1 -10432876#0 -1303674#3 -1303674#2 -1303674#1 -1303674#0 37875047#0 37875047#1 37875047#2 -37921960#6 -37921960#5 -37921960#4 -37921960#3 -37921960#2 -37921960#1 -37921960#0 -37875046 -10433124 4345005#0"/>
    </vehicle>
    <vehicle id="33" depart="33.00">
        <route edges="-4224937#1 -4224937#0 -4001211#1 -4001211#0 -37875047#2 -37875047#1 -37875047#0 1303674#0 1303674#1 1303674#2 1303674#3 10432876#0 10432876#1 15147017 37875048#0 37875048#1 37875048#2 4566129 4566127#0 4566127#1 4566127#2 4566127#3 4566127#4 4566127#5 1303675#0 1303675#1 1303675#2 474176204 474176206 224662518#0 224662518#1 224662518#2 224662518#3 224662518#4 474176205 120860019#1 120860019#2 353232956#0 353232956#1 1258567#0 1258567#1 1258567#2 1258567#3 1258567#4 133288697#0 133288697#1 133288697#2 1258519#0 4730916 133288690 -133288690"/>
    </vehicle>
    <vehicle id="34" depart="34.00">
        <route edges="-4345517#1 -4345517#0 4345473#2 4345473#3 4345473#4 4345473#5 4345473#6 4345473#7 4345473#8 8097621 8097622 8141573#0 8141573#1 8141573#2 8141573#3 8141573#4 8141573#5 37875177#0 37875177#1 8141572 37875178#0 37875178#1 4345080#0 4345101#0 4345102#0 4345102#1 4345104#0 4345104#1 -4345104#1 -4345104#0"/>
    </vehicle>
    <vehicle id="35" depart="35.00">
        <route edges="-4211184#0 -37921607#5 -37921607#4 -37921607#3 -37921607#2 -37921607#1 -37921607#0 -8121601#8 -8121601#7 -8121601#6 -8121601#5 -8121601#4 -8121601#3 -8121601#2 -8121601#1 -8121601#0 37875046 37921960#0 37921960#1 37921960#2 37921960#3 37921960#4 37921960#5 37921960#6 -37875047#2 -37875047#1 -37875047#0 -163253166#6 -163253166#5 -163253166#4 -163253166#3 -163253166#2 -163253166#1 -163253166#0 -37875175#1 -37875175#0 -4001213#4 -4001213#3 -4001213#2 -4001213#1 -4001213#0 37875051#0 37875051#1 37875051#2 37875051#3 37875051#4 37875051#5 37875051#6 8114153#0 8114153#1 8114153#2"/>
    </vehicle>
    <vehicle id="36" depart="36.00">
        <route edges="4539621#5 4539621#6 4539621#7 4539621#8 4539621#9 8132530#5 8132530#6 4539036#0 4539036#1 -4071434#2 -4071434#1 -4071434#0 -4539082#2 -4539082#1 -4071439#4 4539614#0 4539614#1 -4539614#1"/>
    </vehicle>
    <vehicle id="37" depart="37.00">
        <route edges="31692868#2 31692868#3 -210604545#4 -210604545#3 -210604545#2 -210604545#1 -210604545#0 137134810#0 137134810#1 352384998 220457265 351732055 2483235 352385005#0 2483236#0 2483236#1 2483236#2 199815848 120588526#4 120588526#5 120588526#0 8121517 -130896897 -24230727#1 -24230727#0 -24230726 -474197160#1 -474197160#0 -41422490#1 -41422490#0 -41422489 -130896896 -352980806 -1259579 353232954#0 -101883693#4 -101883693#3 -101878802#9 3999797#0 8131474 -8131474"/>
    </vehicle>
    <vehicle id="38" depart="38.00">
        <route edges="4802562#4 30069311 -140276215#1 140276215#1 -30069311 -4802562#4 -30069219 2526622#2 2526622#3 1303754#2 1303754#3 1303754#4 8114058 24229923 351462523 8114059 8114315 138301896 138301897 163444828#4 163444828#5 163444827 -159742022 -159741569 -159741568 -37281410#1 -37281410#0 -37281409 -1522775#4 -1522775#3 -1522775#2 -1522775#1 -1522775#0 -215822027#2 -215822027#1 -215822027#0 -215822019 -37875051#9 -37875051#8 -37875051#7 -37875051#6 -37875051#5 -37875051#4 -37875051#3 -37875051#2 -37875051#1 -37875051#0 4001213#0 4001213#1 4001213#2 4001213#3 4001213#4 37875175#0 37875175#1 163253166#0 163253166#1 163253166#2 163253166#3 163253166#4 163253166#5 163253166#6 37875047#0 37875047#1 37875047#2 -37921960#6 -37921960#5 -37921960#4 -37921960#3 -37921960#2 -37921960#1 -37921960#0 -37875046 8121601#0 8121601#1 8121601#2 8121601#3 8121601#4 8121601#5 8121601#6 8121601#7 8121601#8 37921607#0 37921607#1 37921607#2 37921607#3 37921607#4 37921607#5 392847626 99019208 99019245#0 99019245#1 99019245#2 99019245#3 4565970#0 4565970#1 4565969 -99019217#6 -99019217#5 -99019217#4 -99019217#3 -99019217#2 -99019217#1 -99019217#0 4565967 154344505#0 154344505#1 154344505#2 114709076#0 114709076#1 -229181597#2 -229181597#1 -229181597#0 -133288685 120858387#0 120858387#1 133288687#0 133288687#1 120858389 469980574#0 469980574#1 213752643#0 213752643#1 110676297#5 110676297#6 110676297#7 110676297#8 110676297#0 110676297#1 110676297#2 110676297#3 1258397#0 1258397#1"/>
    </vehicle>
    <vehicle id="39" depart="39.00">
        <route edges="-43129380#0 -2405164#1 -2405164#0 8123724#0 8123724#1 8123724#2 43131419 -8123723#6 -8123723#5 -8123723#4 -8123723#3 -8123723#2 -8123723#1 -8123723#0 8123722#0 8123722#1 8123722#2 8123722#3 43131421#0 43131421#1 -2405163 -2795179 -48959557#2 -48959557#1 -48959557#0 -499722989 99019259#0 99019259#1 110676297#7 110676297#8 110676297#0 110676297#1 110676297#2 110676297#3 1258397#0 1258397#1 1258397#2 1258397#3 213752641#0 213752641#1 213752641#2 213752641#3 213752641#4 213752641#5 99019206#0 99019206#1 99019206#2 110676303 110676298 1258519#0 4730916 133288690 133288689#0 133288689#1 133288689#2 133288689#3 133288689#4 133288689#5 133288689#6 43131438#0 43131438#1 -43131438#1"/>
    </vehicle>
    <vehicle id="40" depart="40.00">
        <route edges="14649055#1 107173184 -3089828#1 -3089828#0 -3089827#2 -3089827#1 -3089827#0 351463468#0 351463468#1 351463468#2 351463468#3 2988503#0 2988503#1 2988503#2 35959166#0 35959166#1 35959166#2 35959166#3 35959166#4 107169548 107169558 102284088 -94551336 -4803066#4 -230992311#5 -230992311#4 -230992311#3 -230992311#2 -230992311#1 -230992311#0 -107169510#1 -107169510#0 -107169546 -4802557#5 -4802557#4 -4802557#3 -4802557#2 -4802557#1 -4802557#0 -24229924#2 -24229924#1 -24229924#0 351462525#0 351462525#1 351462523 8114059 8114315 138301896 138301897 163444828#4 163444828#5 163444827 -159742022 -159741569 -159741568 -37281410#1 -37281410#0 -37281409 -1522775#4 -1522775#3 -1522775#2 -1522775#1 -1522775#0 -215822027#2 -215822027#1 -215822027#0 -215822019 -37875051#9 -37875051#8 -37875051#7 -37875051#6 -37875051#5 -37875051#4 -37875051#3 -37875051#2 -37875051#1 -37875051#0 4001213#0 4001213#1 4001213#2 4001213#3 4001213#4 37875175#0 37875175#1 163253166#0 163253166#1 163253166#2 163253166#3 163253166#4 163253166#5 163253166#6 37875047#0 37875047#1 37875047#2 -37921960#6 -37921960#5 -37921960#4 -37921960#3 -37921960#2 -37921960#1 -37921960#0 -37875046 -10433124 -37875049#9 -37875049#8 -37875049#7 -37875049#6 -37875049#5 -37875049#4 -37875049#3 -37875049#2 -37875049#1 -37875049#0 -8141574#3 4345081#0 4345082#0 4345083#0 4345083#1 -4345083#1 -4345083#0"/>
    </vehicle>
    <vehicle id="41" depart="41.00">
        <route edges="163444827 138301856 163444828#0 163444828#1 163444828#2 163444830 -138301896 -8114315 -8114059 24229925 79366468#0 79366468#1 24229924#0 24229924#1 24229924#2 4802557#0"/>
    </vehicle>
    <vehicle id="42" depart="42.00">
        <route edges="-4730918 -4730917#0 -133288689#3 -133288689#2 -133288689#1 -133288689#0 -133288690 -4730916 1258519#1 120858643#0 120858643#1 120858388 474417096 133288684#0 133288684#1 133288685 229181597#0 229181597#1 229181597#2 99019203 469987721 154344507 154344506 99019255 99019217#0 99019217#1 99019217#2 99019217#3 99019217#4 99019217#5 99019217#6 -4565969 -4565970#1 -4565970#0 -99019245#3 -99019245#2 -99019245#1 -99019245#0 -99019208 -392847626 4211184#0 4211184#1 4211184#2 4211184#3 4211184#4 4211184#5 4211184#6 4211184#7 4211184#8 4211184#9 4211184#10 4211184#11 4211184#12 4211184#13 4211184#14 4211184#15 4211184#16 4211184#17 -4225093 4267130#0 -4225090#1"/>
    </vehicle>
    <vehicle id="43" depart="43.00">
        <route edges="99019245#0 99019245#1 99019245#2 99019245#3 4565970#0 4565970#1 4565969 -99019217#6 -99019217#5 -99019217#4 -99019217#3 -99019217#2 -99019217#1 -99019217#0 4565967 154344505#0 154344505#1 154344505#2 114709076#0 114709076#1 -229181597#2 -229181597#1 -229181597#0 -133288685 120858387#0 120858387#1 8121513 213752641#4 213752641#5 99019206#0 99019206#1 99019206#2 110676303 120859456#0 120859456#1 120859456#2 120859456#3 120859456#4 120859456#5 133288696 120860019#0 120860019#1 120860019#2 353232956#0 -15147019#18 -15147019#17 -15147019#16 -15147019#15 -15147019#14 -15147019#13 -15147019#12 -15147019#11 -15147019#10 -15147019#9 -15147019#8 -15147019#7 15147019#7"/>
    </vehicle>
    <vehicle id="44" depart="44.00">