<?xml version="1.0" encoding="UTF-8"?>

<!-- generated on 02/25/21 17:25:05 by Eclipse SUMO duarouter Version 1.8.0
<configuration xmlns:xsi="http://www.w3.org/2001/XMLSchema-instance" xsi:noNamespaceSchemaLocation="http://sumo.dlr.de/xsd/duarouterConfiguration.xsd">

    <input>
        <net-file value="map_3.net.xml"/>
        <route-files value="trips.trips.xml"/>
    </input>

    <output>
        <output-file value="map_3.rou.xml"/>
        <alternatives-output value="map_3.rou.alt.xml"/>
    </output>

    <time>
        <begin value="0"/>
        <end value="3000"/>
    </time>

    <report>
        <no-warnings value="true"/>
        <ignore-errors value="true"/>
        <no-step-log value="true"/>
    </report>

</configuration>
-->

<routes xmlns:xsi="http://www.w3.org/2001/XMLSchema-instance" xsi:noNamespaceSchemaLocation="http://sumo.dlr.de/xsd/routes_file.xsd">
    <vehicle id="0" depart="0.00">
        <route edges="168507626#0 168507626#1 134772093 134772094#0 134772094#1 -170509699#1 -170509699#0 -134772029#6 -134772029#5 -134772029#4 -134772029#3 -134772029#2 -134772029#1 -134772029#0 -134772080#2 -134772080#1 -134772080#0 -107583483#1"/>
    </vehicle>
    <vehicle id="1" depart="1.00">
        <route edges="-360264074#3 -360264074#2 -360264074#1 -360264074#0 -18750842#3 -18750842#2 -18750842#1 -18750842#0 -4339410#6 -4339410#5 -4339410#4 -4339410#3 -4339410#2 -4339410#1 -4339410#0 8314670#0 8314670#1 8314670#2 8314670#3 8314670#4 8314670#5 8314670#6 8314670#7 8314670#8 8314670#9 8314670#10 8314670#11 8314670#12 8314670#13 8314670#14 8314670#15 8314670#16 8314670#17 83500571#0 83500571#1 83500571#2 83500571#3 -83500561 23642658#0 23642658#1 23642658#2 23642658#3 23642658#4 -23642658#4 -23642658#3"/>
    </vehicle>
    <vehicle id="2" depart="2.00">
        <route edges="23642659#1 -23642659#1 -23642659#0 435994414 23453730#3 23453730#4 23453730#5 23453730#6 23453730#7 435994419 23453729#0 23453729#1 23453729#2 23453729#3 23453729#4 23453729#5 23453729#6 23453729#7 23453729#8 23453729#9 23453729#10 -8314670#11 -8314670#10 -8314670#9 -8314670#8 -8314670#7 -8314670#6 -8314670#5 -8314670#4 -8314670#3 -8314670#2 -8314670#1 -8314670#0 -4020913#2 -4020913#1 -4020913#0 -145704043#7 -145704043#6 -145704043#5 -145704043#4 -145704043#3 -145704043#2 -145704043#1 -145704043#0 -145704053 -54357911#1 -54357911#0 54357908 4020822 54357909 -38128518#11 -38128518#10 -38128518#9 -38128518#8 -38128518#7 -38128518#6 -38128518#5 -38128518#4 -38128518#3 -501468590#1 -501468590#0 -501468589#1 -501468589#0 210368099#0 210368102"/>
    </vehicle>
    <vehicle id="3" depart="3.00">
        <route edges="62380117#2 62380117#3 62380117#4 62380117#5 8314670#7 8314670#8 8314670#9 8314670#10 8314670#11 8314670#12 8314670#13 8314670#14 8314670#15 8314670#16 8314670#17 8314670#18 42987648 42987649 134772096 134772097#0 134772097#1 134772097#2 134772097#3 134772097#4 4020919 4020920#0 4020920#1 134772077#0 134772077#1 134801034#0 -134801034#0"/>
    </vehicle>
    <vehicle id="4" depart="4.00">
        <route edges="-72704246#4 72704246#4 72704246#5 72704246#6 72704246#7 72704246#8 72704246#9 72704246#10 72704246#11 72704246#12 72704246#13 72704246#14 107220985 406649346 -5002830#7 -5002830#6 -5002830#5 -5002830#4 -5002830#3 -5002830#2 -5002830#1 -5002830#0 136577724#0 -360264074#3 -360264074#2 -360264074#1 -360264074#0 -18750842#3 -18750842#2 -18750842#1 -18750842#0 -4339410#6 -4339410#5 -4339410#4 -4339410#3 -4339410#2 -4339410#1 -4339410#0 -4020913#2 -4020913#1 -4020913#0 -54399802#5 -54399802#4 -54399802#3 -54399802#2 -54399802#1 -54399802#0 -38128478#3 -38128478#2 -38128478#1 -38128478#0 -438493998 -438493999#4 -438493999#3 -438493999#2 -438493999#1 -438493999#0 -586899847#2 -586899847#1 -586899847#0 -107754554#1 -107754554#0 -103046586#10 -103046586#9 -103046586#8 -103046586#7 -103046586#6 -103046586#5 -103046586#4 -103046586#3 -739581767 -107754572 -107754502#3 -107754502#2 -107754502#1 -107754502#0"/>
    </vehicle>
    <vehicle id="5" depart="5.00">
        <route edges="-23642655#2 23642655#2 23642655#3 23642655#4 23642655#5 23642655#6 23642655#7 23642655#8 23642655#9 438251112#0 438251112#1 438251112#2 438251112#3 438251112#4 438251112#5 438251112#6 -23642654#2 -23642654#1 -23642654#0 -586899847#2 -586899847#1 -586899847#0 -107754554#1 -107754554#0 -103046586#10 -103046586#9 -103046586#8 -103046586#7 -103046586#6 -103046586#5 -103046586#4 -103046586#3 -739581767 -107754572 -107754502#3 -107754502#2 107754501 112087992 112087964 107754556#1 107754556#2"/>
    </vehicle>
    <vehicle id="6" depart="6.00">
        <route edges="-107583483#0 107583483#0 107583483#1 134772080#0 134772080#1 134772080#2 107583481#0 107583481#1 107583481#2 617464266 -4339351#2 -4339351#1 -4339351#0 28497153 134772053 134771980 -134816231#6 -134816231#5 -134816231#4 -134816231#3 -134816231#2 -134816231#1 -134816231#0 -35032911 -35032910 -134816271 -142618249 -23453731#3 -23453731#2 -23453731#1 -23453731#0 18753818#0 18753818#1 18753818#2 18753818#3 18753818#4 18753818#5 134772102 134772109 23642661 134772098#0 134772098#1 134772098#2 435994417 23453730#7 435994419 23453729#0 23453729#1 23453729#2 23453729#3 23453729#4 23453729#5 23453729#6 23453729#7 23453729#8 23453729#9 23453729#10 -8314670#11 -8314670#10 -8314670#9 -8314670#8 -8314670#7 -8314670#6 -8314670#5 -8314670#4 -8314670#3 -8314670#2 -8314670#1 -8314670#0 -4020913#2 -4020913#1 -4020913#0 -145704043#7 -145704043#6 -145704043#5 -145704043#4 -145704043#3 -145704043#2 -145704043#1 -145704043#0 -145704053 -54357911#1 -54357911#0 54357908 4020822 54357909 -38128518#11 -38128518#10 -38128518#9 -38128518#8 -38128518#7 -38128518#6 -38128518#5 -38128518#4 -38128518#3 -501468590#1 -501468590#0 -501468591#3 -501468591#2 210368107#0 210368107#1 210368107#2 210368107#3 -203364742#3 210368103 -210368103"/>
    </vehicle>
    <vehicle id="7" depart="7.00">
        <route edges="18641531#4 18641531#5 18641531#6 18641532#0 18641532#1 107479774 -107479789 -95181608#6 -95181608#5 -95181608#4 -95181608#3 -95181608#2 -95181608#1 -95181608#0 -95181558 -5002882#2 -5002882#1 -5002882#0 -5002841#4 -5002841#3 -5002841#2 -5002841#1 -5002841#0 145704043#0 145704043#1 145704043#2 145704043#3 145704043#4 145704043#5 145704043#6 145704043#7 4020913#0 4020913#1 4020913#2 8314670#0 8314670#1 8314670#2 8314670#3 8314670#4 8314670#5 8314670#6 8314670#7 8314670#8 8314670#9 8314670#10 8314670#11 8314670#12 8314670#13 8314670#14 8314670#15 8314670#16 8314670#17 8314670#18 42987648 42987649 134772096 134772097#0 134772097#1 134772097#2 134772097#3 134772097#4 4020919 4020920#0 4020920#1 134772077#0 134772077#1 134772077#2 134772077#3 134772077#4"/>
    </vehicle>
    <vehicle id="8" depart="8.00">
        <route edges="-23642655#6 -23642655#5 -23642655#4 -23642655#3 -23642655#2 -23642655#1 -23642655#0 -23642656#4 -23642656#3 -23642656#2 -23642656#1 -23642656#0 -8314670#18 -8314670#17 -8314670#16 -8314670#15 -8314670#14 -8314670#13 -8314670#12 -23453729#10 -23453729#9 -23453729#8 -23453729#7 -23453729#6 -23453729#5 -23453729#4 -23453729#3 -23453729#2 -23453729#1 -23453729#0 435994418 23453730#1 23453730#2 23453730#3 23453730#4 23453730#5 435994420 -134772098#2 -134772098#1 -134772098#0 -23642661 -134772109 -134772102 -18753818#5 -18753818#4 -142618239#4 -142618239#3 -142618239#2 -142618239#1 -142618239#0 142618239#0 142618239#1"/>
    </vehicle>
    <vehicle id="9" depart="9.00">
        <route edges="4020920#0 4020920#1 134772077#0 -134772077#0 -4020920#1 -4020920#0 -4020919 -134771957#1 -134771957#0 -108703720#1 -108703720#0 -134771967#11 -134771967#10 -134771967#9 -134771967#8 -134771967#7 -134771967#6 -134771967#5 -134771967#4 -134771967#3 -134771967#2 -134771967#1 -134771967#0 -134771924 -592287172#1 -592287172#0 -38128493#2 -38128493#1 -38128493#0 -438251106#3 -438251106#2 -438251106#1 -438251106#0 -35193872#5 -35193872#4 -35193872#3 -35193872#2 -35193872#1 -35193872#0 -23642654#2 -23642654#1 -23642654#0 -586899847#2 -586899847#1 -586899847#0 -107754554#1 -107754554#0 -103046586#10 -103046586#9 -103046586#8 -103046586#7 -103046586#6 -103046586#5 -103046586#4 -103046586#3 -103046586#2 -103046586#1 -103046586#0 -103046608#4 -103046608#3 -103046608#2 103920104#0 -103920104#0"/>
    </vehicle>
    <vehicle id="10" depart="10.00">
        <route edges="38128518#7 38128518#8 38128518#9 38128518#10 38128518#11 54357910 54357904#0 54357904#1 54357904#2 4020912 54357911#0 54357911#1 145704053 145704043#0 145704043#1 145704043#2 145704043#3 145704043#4 145704043#5 145704043#6 145704043#7 4020913#0 4020913#1 4020913#2 8314670#0 8314670#1 8314670#2 8314670#3 8314670#4 8314670#5 8314670#6 8314670#7 8314670#8 8314670#9 8314670#10 8314670#11 -23453729#10 -23453729#9 -23453729#8 -23453729#7 -23453729#6 -23453729#5 -23453729#4 -23453729#3 -23453729#2 -23453729#1 -23453729#0 435994418 23453730#1 23453730#2 23453730#3 23453730#4 23453730#5 435994420 -134772098#2 -134772098#1 -134772098#0 -23642661 -134772109 -134772102 -18753818#5 -18753818#4 -18753818#3 -18753818#2 -18753818#1 -18753818#0 23453731#0 23453731#1 23453731#2 23453731#3 142618249 134816271 35032910 35032911 134816231#0 134816231#1 134816231#2 134816231#3 134816231#4 134816231#5 134816231#6 23453734#0 23453734#1 23453734#2"/>
    </vehicle>
    <vehicle id="11" depart="11.00">
        <route edges="-5002882#1 5002882#1 5002882#2 95181558 95181608#0 95181608#1 95181608#2 -107479761#1 -107479761#0 -107479778 -95181562#4 -95181562#3 -95181562#2 -95181562#1 -95181562#0 18642077#1 18642077#2 18642077#3 18642077#4 -18642077#4"/>
    </vehicle>
    <vehicle id="12" depart="12.00">
        <route edges="8314670#8 -8314670#8 -8314670#7 -8314670#6 -8314670#5 -8314670#4 -8314670#3 -8314670#2 -8314670#1 -8314670#0 -4020913#2 -4020913#1 -4020913#0 -145704043#7 -145704043#6 -145704043#5 -145704043#4 -145704043#3 -145704043#2 -145704043#1 -145704043#0 -145704053 -54357911#1 -54357911#0 54357908 4020822 54357909 -38128518#11 -38128518#10 -38128518#9 -38128518#8 -38128518#7 -38128518#6 -38128518#5 -38128518#4 -38128518#3 -501468590#1 -501468590#0 -501468589#1 -501468589#0"/>
    </vehicle>
    <vehicle id="13" depart="13.00">
        <route edges="-134801042#0 -134801024#0 -134801022#1 -134801022#0 -134772077#12 -134772077#11 -134772077#10 -134772077#9 -134772077#8 -134772077#7 -134772077#6 -134772077#5 -134772077#4 -134772077#3 -134772077#2 -134772077#1 -134772077#0 -4020920#1 -4020920#0 -4020919 -134772097#4 -134772097#3 -134772097#2 -134772097#1 -134772097#0 -134772096 -42987649 -42987648 -8314670#18 -8314670#17 -8314670#16 -8314670#15 -8314670#14 -8314670#13 -8314670#12 -8314670#11 -8314670#10 -8314670#9 -8314670#8 -8314670#7 -8314670#6 -8314670#5 -8314670#4 -8314670#3 -8314670#2 -8314670#1 -8314670#0 4339410#0 4339410#1 4339410#2 -18750834#4 -18750834#3 -18750834#2 -18750834#1 -18750834#0 136577727#0 136577727#1 136577727#2 -136577723#7 -136577723#6 -136577723#5 -136577723#4 -136577723#3 -136577723#2 -136577723#1 -136577723#0"/>
    </vehicle>
    <vehicle id="14" depart="14.00">
        <route edges="438251112#3 438251112#4 438251112#5 438251112#6 -23642654#2 -23642654#1 -23642654#0 438493999#0 438493999#1 438493999#2 438493999#3 438493999#4 438493998 38128478#0 38128478#1 38128478#2 38128478#3 54399802#0 54399802#1 54399802#2 54399802#3 54399802#4 54399802#5 4020913#0 4020913#1 4020913#2 4339410#0 4339410#1 4339410#2 4339410#3 4339410#4 4339410#5 4339410#6 4339410#7 4339410#8 18755057#0 18755057#1 18755057#2 -107220986#2 -107220986#1 -107220986#0 -157533930#2 157533930#2"/>
    </vehicle>
    <vehicle id="15" depart="15.00">
        <route edges="4020822 54357903 54357904#0 54357904#1 54357904#2 4020912 54357911#0 54357911#1 5002813#0 5002813#1 5002813#2 5002813#3 5002813#4 136577727#0 136577727#1 136577727#2 -136577724#2 -136577724#1 -136577724#0 5002830#0 5002830#1 5002830#2 5002830#3 5002830#4 5002830#5 5002830#6 5002830#7 18641112#0 18641112#1 145704050 29185369#0 29185369#1 29185369#2 29185369#3"/>
    </vehicle>
    <vehicle id="16" depart="16.00">
        <route edges="109707977 109707982#1 62380119#1 8314670#3 8314670#4 8314670#5 8314670#6 8314670#7 8314670#8 8314670#9 8314670#10 8314670#11 8314670#12 8314670#13 8314670#14 8314670#15 8314670#16 8314670#17 83500571#0 83500571#1 83500571#2 83500571#3 -83500561 23642658#0 23642658#1 23642658#2 23642658#3 23642658#4 -23642658#4 83500572#0 83500572#1"/>
    </vehicle>
    <vehicle id="17" depart="17.00">
        <route edges="-658931586#2 658931586#2 658931586#3 658931583 23642653#0 23642653#1 23642653#2 586899847#0 586899847#1 586899847#2 23642654#0 23642654#1 23642654#2 -438251112#6 -438251112#5 -438251112#4 -438251112#3 -438251112#2 -438251112#1 -438251112#0 -23642655#9 -23642655#8 -23642655#7 -23642655#6 -23642655#5 -23642655#4 -23642655#3 -23642655#2 -23642655#1 -23642655#0 -23642656#4 -23642656#3 -23642656#2 -23642656#1 -23642656#0 42987648 42987649 134772096"/>
    </vehicle>
    <vehicle id="18" depart="18.00">
        <route edges="435994427#0 -435994427#0 -23453729#10 -23453729#9 -23453729#8 -23453729#7 -23453729#6 -23453729#5 -23453729#4 -23453729#3 -23453729#2 -23453729#1 -23453729#0 435994418 23453730#1 23453730#2 23453730#3 23453730#4 23453730#5 435994420 -134772098#2 -134772098#1 -134772098#0 -23642661 -134772109 -134772102 -18753818#5 -18753818#4 -18753818#3 -18753818#2 -18753818#1 -18753818#0 23453731#0 23453731#1 23453731#2 23453731#3 142618249 134816271 35032910 35032911 134816231#0 134816231#1 134816231#2 134816231#3 134816231#4 134816231#5 134816231#6 23453734#0 23453734#1 23453734#2 23453734#3 28497154 4339351#0 4339351#1 4339351#2 4339351#3 617464267 -107583481#2 -107583481#1 -107583481#0 134772029#0 134772029#1 134772029#2 134772029#3 134772029#4 134772029#5 134772029#6 170509699#0 170509704"/>
    </vehicle>
    <vehicle id="19" depart="19.00">
        <route edges="5002884#2 -5002884#2 -5002884#1 -5002884#0 -107479789 -95181608#6 -95181608#5 -95181608#4 -95181608#3 -95181608#2 -95181608#1 -95181608#0 -95181558 -5002882#2 -5002882#1 -5002882#0 -5002841#4 -5002841#3 -5002841#2 -5002841#1 -5002841#0 145704043#0 145704043#1 145704043#2 145704043#3 145704043#4 145704043#5 145704043#6 145704043#7 4020913#0 4020913#1 4020913#2 4339410#0 4339410#1 4339410#2 4339410#3 4339410#4 4339410#5 4339410#6 18750842#0 -136577268 136577268"/>
    </vehicle>
    <vehicle id="20" depart="20.00">
        <route edges="222297338#0 -222297338#0 28497211#1 28497211#2 28497211#3 28497213 -134771955 -134771920 -4339350#1 -4339350#0 4339355 134771987#2 134771977 134771989#0 134771989#1 134771989#2 4339357 -134772006#4 -134772006#3 -134772006#2 -134772006#1 -134772006#0 4339352#0 4339352#1 -4020919 -134772097#4 -134772097#3 -134772097#2 -134772097#1 -134772097#0 -134772096 -42987649 -42987648 -8314670#18 -8314670#17 -8314670#16 -8314670#15 -8314670#14 -8314670#13 -8314670#12 -8314670#11 -8314670#10 -8314670#9 -8314670#8 -8314670#7 -8314670#6 -8314670#5 -8314670#4 -8314670#3 -8314670#2 -8314670#1 117937212#0 117937212#1 117937212#2 117937212#3 117937212#4 -117937212#4"/>
    </vehicle>
    <vehicle id="21" depart="21.00">
        <route edges="-23642660#0 23642661 134772098#0 134772098#1 134772098#2 435994417 23453730#7 435994419 23453729#0 23453729#1 23453729#2 23453729#3 23453729#4 23453729#5 23453729#6 23453729#7 23453729#8 23453729#9 23453729#10 -8314670#11 -8314670#10 -8314670#9 -8314670#8 -8314670#7 -8314670#6 -8314670#5 -8314670#4 -8314670#3 -8314670#2 -8314670#1 -8314670#0 -4020913#2 -4020913#1 -4020913#0 -145704043#7 -145704043#6 -145704043#5 -145704043#4 -145704043#3 -145704043#2 -145704043#1 -145704043#0 -145704053 -54357911#1 -54357911#0 54357908 4020822 54357909 -38128518#11 -38128518#10 -38128518#9"/>
    </vehicle>
    <vehicle id="22" depart="22.00">
        <route edges="-134772098#1 134772098#1 134772098#2 435994417 23453730#7 435994419 23453729#0 23453729#1 23453729#2 23453729#3 23453729#4 23453729#5 23453729#6 23453729#7 23453729#8 23453729#9 23453729#10 -8314670#11 -8314670#10 -8314670#9 -8314670#8 -8314670#7 -8314670#6 -8314670#5 -8314670#4 -8314670#3 -8314670#2 -8314670#1 -8314670#0 4339410#0 4339410#1 4339410#2 4339410#3 4339410#4 4339410#5 4339410#6 18750842#0 18750842#1 18750842#2 18750842#3 360264074#0 360264074#1 360264074#2 360264074#3 -136577724#0 5002830#0 5002830#1 5002830#2 5002830#3 5002830#4 5002830#5 5002830#6 5002830#7 18641112#0 18641112#1 145704050 29185369#0 29185369#1 29185369#2 29185369#3 29185369#4 29185369#5 29185369#6 29185369#7 29185369#8 29185369#9 29185369#10 29185369#11 29185369#12 -29185369#12"/>
    </vehicle>
    <vehicle id="23" depart="23.00">
        <route edges="-136577265#2 136577268 -18750842#0 -4339410#6 -4339410#5 -4339410#4 -4339410#3 -4339410#2 -4339410#1 -4339410#0 -4020913#2 -4020913#1 -4020913#0 -54399802#5 -54399802#4 -54399802#3 -54399802#2 -54399802#1 -54399802#0 -38128478#3 -38128478#2 -38128478#1 -38128478#0 -438493998 -438493999#4 -438493999#3 -438493999#2 -438493999#1 -438493999#0 23642654#0 23642654#1 23642654#2 -438251112#6 -438251112#5 -438251112#4 -438251112#3 -438251112#2 -38127863#10 -38127863#9 -38127863#8"/>
    </vehicle>
    <vehicle id="24" depart="24.00">
        <route edges="167098978#0 -167098978#0 35013311#9 35013311#10 35013311#11 35013311#12 -4339351#4 -4339351#3 -4339351#2 -4339351#1 -4339351#0 28497153 134772053 134771980 -134816231#6 -134816231#5 -134816231#4 -134816231#3 -134816231#2 -134816231#1 -134816231#0 -35032911 -35032910 -134816271 -142618249 -23453731#3 -23453731#2 -23453731#1 -23453731#0 18753818#0 18753818#1 18753818#2 18753818#3 18753818#4 18753818#5 134772102 134772109 23642661 134772098#0 134772098#1 134772098#2 435994417 23453730#7 435994419 23453729#0 23453729#1 23453729#2 23453729#3 23453729#4 23453729#5 23453729#6 23453729#7 23453729#8 23453729#9 23453729#10 -8314670#11 -8314670#10 -8314670#9 -8314670#8 -8314670#7 -8314670#6 -8314670#5 -8314670#4 -8314670#3 -8314670#2 -8314670#1 -8314670#0 4339410#0 4339410#1 4339410#2 -18750834#4 -18750834#3 -18750834#2 -18750834#1 -18750834#0 136577727#0 136577727#1 136577727#2 -136577723#7 -136577723#6 -136577723#5 -136577723#4 33144026#0 33144026#1 33144026#2 33144026#3 33144026#4 33144026#5 33144026#6 33144026#7 -62380120#7 -62380120#6 -62380120#5 -62380120#4 -62380120#3 -62380120#2 -62380120#1"/>
    </vehicle>
    <vehicle id="25" depart="25.00">
        <route edges="-62380120#0 62380120#0 62380120#1 62380120#2 62380120#3 62380120#4 62380120#5 62380120#6 62380120#7 -33144026#7 -33144026#6 -33144026#5 -33144026#4 -33144026#3 -33144026#2 -33144026#1 -33144026#0 136577723#4 136577723#5 136577723#6 136577723#7 -136577727#2 -136577727#1 -136577727#0 18750834#0 18750834#1 18750834#2 18750834#3 18750834#4 -4339410#2 -4339410#1 -4339410#0 8314670#0 8314670#1 8314670#2 8314670#3 8314670#4 8314670#5 8314670#6 8314670#7 8314670#8 8314670#9 8314670#10 8314670#11 -23453729#10 -23453729#9 -23453729#8 -23453729#7 -23453729#6 -23453729#5 -23453729#4 -23453729#3 -23453729#2 -23453729#1 -23453729#0 435994418 23453730#1 23453730#2 23453730#3 23453730#4 23453730#5 435994420 -134772098#2 -134772098#1 -134772098#0 -23642661 -134772109 -134772102 -18753818#5 -18753818#4 -18753818#3 -18753818#2 -18753818#1 -18753818#0 23453731#0 23453731#1 23453731#2 -23453731#2"/>
    </vehicle>
    <vehicle id="26" depart="26.00">
        <route edges="-35013311#7 35013311#7 35013311#8 35013311#9 35013311#10 35013311#11 35013311#12 -4339351#4 -4339351#3 -4339351#2 -4339351#1 -4339351#0 28497153 134772053 134771980 -134816231#6 -134816231#5 -134816231#4 -134816231#3 -134816231#2 -134816231#1 -134816231#0 -35032911 -35032910 -134816271 -142618249 -23453731#3 -23453731#2 -23453731#1 -23453731#0 18753818#0 18753818#1 18753818#2 18753818#3 18753818#4 18753818#5 134772102 134772109 23642661 134772098#0 134772098#1 134772098#2 435994417 23453730#7 435994419 23453729#0 23453729#1 23453729#2 23453729#3 23453729#4 23453729#5 23453729#6 23453729#7 23453729#8 23453729#9 23453729#10 -8314670#11 -8314670#10 -8314670#9 -8314670#8 -826443249#8 -826443249#7 -826443249#6 -826443249#5 -826443249#4 -826443249#3 -826443249#2 -826443249#1 826443249#1"/>
    </vehicle>
    <vehicle id="27" depart="27.00">
        <route edges="18641529#1 -5002841#4 -5002841#3 -5002841#2 -5002841#1 -5002841#0 145704043#0 145704043#1 145704043#2 145704043#3 145704043#4 145704043#5 145704043#6 145704043#7 4020913#0 4020913#1 4020913#2 8314670#0 8314670#1 8314670#2 8314670#3 8314670#4 8314670#5 8314670#6 8314670#7 8314670#8 8314670#9 8314670#10 8314670#11 -23453729#10 -23453729#9 -23453729#8 -23453729#7 -23453729#6 -23453729#5 -23453729#4 -23453729#3 -23453729#2 -23453729#1 -23453729#0 435994418 23453730#1 23453730#2 23453730#3 23453730#4 23453730#5 435994420 -134772098#2 -134772098#1 -134772098#0 -23642661 -134772109 -134772102 -18753818#5 -18753818#4 -18753818#3 -18753818#2 -18753818#1 -18753818#0 23453731#0 23453731#1 23453731#2 23453731#3 142618249 134816271 35032910 35032911 134816231#0 134816231#1 134816231#2 134816231#3 134816231#4 134816231#5 134816231#6 23453734#0 23453734#1 23453734#2 23453734#3 28497154 4339351#0 4339351#1 4339351#2 4339351#3 4339351#4 -35013311#12 -35013311#11 -35013311#10 -35013311#9 167098978#0 167098978#1 167098978#2 167098980"/>
    </vehicle>
    <vehicle id="28" depart="28.00">
        <route edges="-18750842#0 18750842#0 18750842#1 18750842#2 18750842#3 360264074#0 360264074#1 360264074#2 360264074#3 -136577724#0 5002830#0 5002830#1 5002830#2 5002830#3 5002830#4 5002830#5 5002830#6 5002830#7 18641112#0 18641112#1 145704050 29185369#0 29185369#1 29185369#2 29185369#3 29185369#4 29185369#5 29185369#6 29185369#7 29185369#8 29185369#9 29185369#10 29185369#11 29185369#12 29185369#13 29185369#14 29185369#15 29185369#16 29185369#17"/>
    </vehicle>
    <vehicle id="29" depart="29.00">
        <route edges="-18750834#3 18750834#3 18750834#4 -4339410#2 -4339410#1 -4339410#0 8314670#0 8314670#1 8314670#2 8314670#3 8314670#4 8314670#5 8314670#6 8314670#7 8314670#8 8314670#9 8314670#10 8314670#11 435994427#0 435994427#1 435994427#2 435994427#3 436010315 691872686#4 -691872686#4"/>
    </vehicle>
    <vehicle id="30" depart="30.00">
        <route edges="95181558 95181608#0 -95181608#0 -95181558 -5002882#2 -5002882#1 -5002882#0 -5002841#4 -5002841#3 -5002841#2 -5002841#1 -5002841#0 145704043#0 -18750838#3 -18750838#2 -18750838#1 -18750838#0 18750834#0"/>
    </vehicle>
    <vehicle id="31" depart="31.00">
        <route edges="134772006#2 134772006#3 134772006#4 4339353 134772000 134771987#0 4339356 4339350#0 4339350#1 134771920 134771955 28497212 134771940 28497211#0 28497211#1 28497214 28497210#0 28497210#1 28497155 23453734#2 23453734#3 28497154 4339351#0 4339351#1 4339351#2 4339351#3 4339351#4 4339351#5 547593120 134772049 225862835 225862830#0 225862837 225862834#0"/>
    </vehicle>
    <vehicle id="32" depart="32.00">
        <route edges="437775683#1 72199736#2 136577723#0 136577723#1 136577723#2 136577723#3 136577723#4 136577723#5 136577723#6 136577723#7 -136577727#2 -136577727#1 -136577727#0 18750838#0 18750838#1 18750838#2 18750838#3 145704043#1 145704043#2 145704043#3 145704043#4 145704043#5 145704043#6 145704043#7 -54399802#5 -54399802#4 -54399802#3 -54399802#2 -54399802#1 -54399802#0 -38128478#3 -38128478#2 -38128478#1 -38128478#0 -438493998 -438493999#4 -438493999#3 -38127927#8 -38127927#7 -38127927#6 38127927#6"/>
    </vehicle>
    <vehicle id="33" depart="33.00">
        <route edges="-23642661 23642661 134772098#0 134772098#1 134772098#2 435994417 23453730#7 435994419 23453729#0 23453729#1 23453729#2 23453729#3 23453729#4 23453729#5 23453729#6 23453729#7 23453729#8 23453729#9 23453729#10 -8314670#11 -8314670#10 -8314670#9 -8314670#8 -8314670#7 -8314670#6 -8314670#5 -8314670#4 -8314670#3 -8314670#2 -8314670#1 -8314670#0 -4020913#2 -4020913#1 -4020913#0 -54399802#5 -54399802#4 -54399802#3 -54399802#2 -54399802#1 -54399802#0 -38128478#3 -38128478#2 -38128478#1 -38128478#0 -438493998 -438493999#4 -438493999#3 -438493999#2 -438493999#1 -438493999#0 -586899847#2 -586899847#1 -586899847#0 -107754554#1 -107754554#0 -103046586#10 -103046586#9 -103046586#8 -103046586#7 -103046586#6 -103046586#5 -103046586#4 -103046586#3 -739581767 -107754572 -107754502#3 -107754502#2 107754501 112087992 112087964 107754543 -107754543"/>
    </vehicle>
    <vehicle id="34" depart="34.00">
        <route edges="-435994436#1 -435994433#1 -435994433#0 -435994441#1 -435994441#0 -435994435#0 -435994438#0 435994437 23453730#5 23453730#6 23453730#7 435994419 23453729#0 23453729#1 23453729#2 23453729#3 23453729#4 23453729#5 23453729#6 23453729#7 23453729#8 23453729#9 23453729#10 8314670#12 8314670#13 8314670#14 8314670#15 8314670#16 8314670#17 8314670#18 42987648 42987649 134772096 134772097#0 134772097#1 134772097#2 134772097#3 134772097#4 -134771957#1 -134771957#0 -108703720#1 -108703720#0 -134771967#11 -134771967#10 -134771967#9 -134771967#8 -134771967#7 -134771967#6 -134771967#5 -134771967#4 -134771967#3 -134771967#2 -134771967#1 -134771967#0 -134771924 -592287172#1 -592287172#0 -38128493#2 -38128493#1 -38128493#0 -438251106#3 -438251106#2 -438251106#1 -438251106#0 -35193872#5 -35193872#4"/>
    </vehicle>
    <vehicle id="35" depart="35.00">
        <route edges="-23453731#1 -23453731#0 18753818#0 18753818#1 18753818#2 18753818#3 18753818#4 18753818#5 134772102 134772109 23642661 134772098#0 134772098#1 134772098#2 435994417 23453730#7 435994419 23453729#0 23453729#1 23453729#2 23453729#3 23453729#4 23453729#5 23453729#6 23453729#7 23453729#8 23453729#9 23453729#10 8314670#12 8314670#13 8314670#14 8314670#15"/>
    </vehicle>
    <vehicle id="36" depart="36.00">
        <route edges="54399793#1 -438493999#1 -438493999#0 23642654#0 23642654#1 23642654#2 35193872#0 35193872#1 35193872#2 35193872#3 35193872#4 35193872#5 438251106#0 438251106#1 438251106#2 438251106#3 38128493#0 38128493#1 38128493#2 592287172#0 592287172#1 134771924 134771967#0 134771967#1 134771967#2 134771967#3 134771967#4 134771967#5 134771967#6 134771967#7 134771967#8 134771967#9 134771967#10 134771967#11 108703720#0 108703720#1 134771957#0 134771957#1 4020919 4020920#0 4020920#1 134772077#0 134772077#1 134772077#2 134772077#3 134772077#4 134772077#5 134772077#6 134772077#7 134772077#8 134772077#9 134772077#10 134772077#11 134772077#12 134772014#0 134772014#1 134772014#2 134772014#3 134772014#4 134772014#5 134772014#6 134772014#7 134772014#8 436024592#0 436024592#1 436024592#2 436024591#0 436024591#1 -436024591#1"/>
    </vehicle>
    <vehicle id="37" depart="37.00">
        <route edges="18641975#5 -18641975#5 -18641975#4 -18641975#3 -18641975#2 -18641975#1 -18641975#0 -18642077#1 95181562#0 95181562#1 95181562#2 95181562#3 95181562#4 107479778 107479761#0 107479761#1 -95181608#2 -95181608#1 -95181608#0 -95181558 -5002882#2 -5002882#1 -5002882#0 -5002841#4 -5002841#3 -5002841#2 -5002841#1 -5002841#0 145704043#0 145704043#1 145704043#2 145704043#3 145704043#4 145704043#5 145704043#6 145704043#7 4020913#0 4020913#1 4020913#2 8314670#0 8314670#1 -71390175#2"/>
    </vehicle>
    <vehicle id="38" depart="38.00">
        <route edges="69997894#2 69997894#3 69997894#4 69997894#5 -33144031#7 -33144031#6 -33144031#5 -33144031#4 -33144031#3 -33144031#2 -33144031#1 -33144031#0 136577723#2 136577723#3 136577723#4 136577723#5 136577723#6 136577723#7 -136577727#2 -136577727#1 -136577727#0 18750838#0 18750838#1 18750838#2 18750838#3 -145704043#0 5002841#0 5002841#1 5002841#2 5002841#3 5002841#4 5002882#0 5002882#1 5002882#2 95181558 95181608#0 95181608#1 95181608#2 -107479761#1 -107479761#0 -107479778 -95181562#4 -95181562#3 -95181562#2 -95181562#1 -95181562#0"/>
    </vehicle>
    <vehicle id="39" depart="39.00">
        <route edges="-35013311#2 35013311#2 35013311#3 35013311#4 35013311#5 35013311#6 35013311#7 35013311#8 35013311#9 35013311#10 35013311#11 35013311#12 -4339351#4 -4339351#3 -4339351#2 -4339351#1 -4339351#0 28497153 134772053 134771980 -134816231#6 -134816231#5 -134816231#4 -134816231#3 -134816231#2 -134816231#1 -134816231#0 -35032911 -35032910 -134816271 -142618249 -23453731#3 -23453731#2 -23453731#1 -23453731#0 18753818#0 18753818#1 18753818#2 18753818#3 18753818#4 18753818#5 134772102 134772109 23642661 134772098#0 134772098#1 134772098#2 435994417 23453730#7 435994419 23453729#0 23453729#1 23453729#2 23453729#3 23453729#4 23453729#5 23453729#6 23453729#7 23453729#8 23453729#9 23453729#10 -8314670#11 -8314670#10 -8314670#9 -8314670#8 -8314670#7 -8314670#6 -8314670#5 -8314670#4 -8314670#3 -8314670#2 -8314670#1 -8314670#0 4339410#0 4339410#1 4339410#2 4339410#3 4339410#4 4339410#5 4339410#6 4339410#7 4339410#8 18755057#0 18755057#1 18755057#2 -107220986#2 -107220986#1 -107220986#0 83278802#0 83278802#1 304848610 304848609 -304848609 -304848610"/>
    </vehicle>
    <vehicle id="40" depart="40.00">
        <route edges="134772014#8 436024592#0 -436024592#0 -134772014#8 -134772014#7 -134772014#6 -134772014#5 -134772014#4 -134772014#3 -134772014#2 -134772014#1 -134772014#0 -134772077#12 -134772077#11 -134772077#10 -134772077#9 -134772077#8 -134772077#7 -134772077#6 -134772077#5 -134772077#4 -134772077#3 -134772077#2 -134772077#1 -134772077#0 -4020920#1 -4020920#0 -4339352#1 -4339352#0 134772006#0 134772006#1 134772006#2 134772006#3 134772006#4 4339353 134772000 134771987#0 4339356 4339350#0 4339350#1 134771920 134771955 28497212 134771940 28497211#0 28497211#1 28497214 28497210#0 28497210#1 28497155 23453734#2 23453734#3 28497154 4339351#0 4339351#1 4339351#2 4339351#3 4339351#4 -35013311#12 -35013311#11 -35013311#10 -35013311#9 -35013311#8 -35013311#7 -35013311#6 -35013311#5 -35013311#4 -35013311#3"/>
    </vehicle>
    <vehicle id="41" depart="41.00">