<?xml version="1.0" encoding="UTF-8"?>

<!-- generated on 02/25/21 17:25:14 by Eclipse SUMO duarouter Version 1.8.0
<configuration xmlns:xsi="http://www.w3.org/2001/XMLSchema-instance" xsi:noNamespaceSchemaLocation="http://sumo.dlr.de/xsd/duarouterConfiguration.xsd">

    <input>
        <net-file value="map_4.net.xml"/>
        <route-files value="trips.trips.xml"/>
    </input>

    <output>
        <output-file value="map_4.rou.xml"/>
        <alternatives-output value="map_4.rou.alt.xml"/>
    </output>

    <time>
        <begin value="0"/>
        <end value="3000"/>
    </time>

    <report>
        <no-warnings value="true"/>
        <ignore-errors value="true"/>
        <no-step-log value="true"/>
    </report>

</configuration>
-->

<routes xmlns:xsi="http://www.w3.org/2001/XMLSchema-instance" xsi:noNamespaceSchemaLocation="http://sumo.dlr.de/xsd/routes_file.xsd">
    <vehicle id="0" depart="0.00">
        <route edges="26433095#2 29184981 112630335#0 112630335#1 112630335#2 112630335#3 31674212#0 31674212#1 507299759 -31674214 -144332784#2 -144332784#1 -144332784#0 -4310339#1 -4310339#0 -4299421#7 -4299421#6 -4299421#5 -4299421#4 -4299421#3 -4299421#2 -4299421#1 -4299421#0 8139202#0 8139202#1 255043871#0 255043871#1 528433234#0 528433234#1 528433234#2 133632842#4 133632842#5 133632842#6 28113971#0 -28113971#0 -133632842#6"/>
    </vehicle>
    <vehicle id="1" depart="1.00">
        <route edges="-4310341#4 -4310341#3 -4310341#2 -4310341#1 -4310341#0 4313200#0 4313200#1 4313200#2 31674202 31674198 376143548#0 376143548#1 4367837 4367838 4378734 -33424790#1"/>
    </vehicle>
    <vehicle id="2" depart="2.00">
        <route edges="376143364#2 -376143364#2 -376143364#1 -376143364#0 -4310312#3 -4310312#2 -4310312#1 -4310312#0 4310338#0 4310338#1 4310338#2 4310340#0 4310340#1 4310339#0 4310339#1 144332784#0 144332784#1 144332784#2 31674214 4310341#0 4310341#1 4310341#2 4310341#3 4310341#4 4310341#5 4313201#0 4313201#1 4313201#2 4313201#3 4313201#4 30697965#0 30697965#1 31674193#0"/>
    </vehicle>
    <vehicle id="3" depart="3.00">
        <route edges="4436628#5 -4436628#5 -4436628#4 -4436628#3 -4436628#2 -4436628#1 -4436628#0 -782674020#6 -782674020#5 -782674020#4 -782674020#3 -782674020#2 -782674020#1 -782674020#0 -123755380#3 -123755380#2 -123755380#1 -123755380#0 -4367710 4313204#0 4313204#1 4313204#2 -51982460#1 -51982460#0 -134436321#3 -134436321#2 -134436321#1 -134436321#0 -147522470 -4313202#2 -4313202#1 -4313202#0 -600468612 -31685821#1 -31685821#0 -4313201#4 -4313201#3 -4313201#2 -4313201#1 144844016 -144844003#0"/>
    </vehicle>
    <vehicle id="4" depart="4.00">
        <route edges="-688361304 147522468#0 147522468#1 -31685822#9 -31685822#8 -31685822#7 -31685822#6 -31685822#5 -31685822#4 -31685822#3 -31685822#2 -31685822#1 -31685822#0 -30697965#1 -30697965#0 -4313201#4 -4313201#3 -4313201#2 -4313201#1 -4313201#0 -4310341#5 -4310341#4 -4310341#3 -4310341#2 -4310341#1 -4310341#0 -31674214 -144332784#2 -144332784#1 -144332784#0 -4310339#1 -4310339#0 -4299421#7 -4299421#6 -4299421#5 -4299421#4 -4299421#3 -4299421#2 -4299421#1 -4299421#0 8139202#0 8139202#1 255043871#0 255043871#1 528433234#0 528433234#1 -133632862 -133632842#2 -133632842#1 -133632842#0 -133632843#5"/>
    </vehicle>
    <vehicle id="5" depart="5.00">
        <route edges="-37574457#0 37574457#0 37574457#1 37574457#2 37574457#3 37574457#4 4313156#0 4313156#1 4313156#2 4313156#3 4313156#4 112630345 112630339#0 112630339#1 528433230 4310312#0 4310312#1 4310312#2 4310312#3 376143364#0 376143364#1 376143364#2 376143364#3 -112502964#7 -112502964#6 -112502964#5 112502964#5"/>
    </vehicle>
    <vehicle id="6" depart="6.00">
        <route edges="-133632842#6 -133632842#5 -133632842#4 -528433234#2 -528433234#1 -528433234#0 -255043871#1 -255043871#0 -8139202#1 -8139202#0 4299421#0 4299421#1 4299421#2 4299421#3 4299421#4 4299421#5 4299421#6 4299421#7 4310339#0 4310339#1 144332784#0 144332784#1 144332784#2 31674214 -507299759 -31674212#1 -31674212#0"/>
    </vehicle>
    <vehicle id="7" depart="7.00">
        <route edges="30043548 29184898 782674027 278021218 -134436331 -30698464#1 -30698464#0 -30043557#9 -30043557#8 -30043557#7 -30043557#6 -30043557#5 -30043557#4 -30043557#3 -30043557#2 -30043557#1 -30043557#0 -4367907#3 -4367907#2 -4367907#1 -4367907#0 -4310348#1 -4310348#0 4310347#0 4310347#1 4310347#2 4310347#3 -30699361#1 -30699361#0 -30699363 -134436324 -4310346#5 -4310346#4 -4310346#3 -4310346#2 -4310346#1 -4310346#0 4313204#2 34130886#0 34130886#1 34130886#2 34130886#3 34130886#4 4313203#0 4313203#1 4367710 123755380#0 123755380#1 123755380#2 123755380#3 782674020#0 782674020#1 782674020#2 782674020#3 782674020#4 782674020#5 782674020#6 4436628#0 4436628#1 4436628#2 4436628#3 4436628#4 4436628#5 4436628#6 4436628#7 4436628#8 4436628#9 4436628#10 4436628#11 138758812#0 138758812#1"/>
    </vehicle>
    <vehicle id="8" depart="8.00">
        <route edges="-37574457#2 -37574457#1 -37574457#0 -4257506#1 -4257506#0 -156185229#1 -156185229#0 -30043603#6 768078661 4313177#0 4313177#1 4313179#0 4313179#1 4313179#2 4313179#3 696517237#0 696517237#1 696517237#2 26433095#0 26433095#1 26433095#2 29184981 112630335#0 112630335#1 112630335#2 112630335#3 31674212#0 31674212#1 507299759 4310341#0 4310341#1 4310341#2 4310341#3 4310341#4 4310341#5 4313201#0 4313201#1 144844009#0 144844009#1 144844009#2 144844009#3"/>
    </vehicle>
    <vehicle id="11" depart="11.00">
        <route edges="-4313205#4 -4313205#3 -4313205#2 -4313205#1 -4313205#0 -34130886#4 -34130886#3 -34130886#2 -34130886#1 -34130886#0 -51982460#1 -51982460#0 -134436321#3 -134436321#2 -134436321#1 -134436321#0 -147522470 -4313202#2 -4313202#1 -4313202#0 -600468612 -4257503#7 -4257503#6 -4257503#5 -4257503#4 -4257503#3 -4257503#2 -4257503#1 -4257503#0 4310349#0 4310349#1 4367907#0 4367907#1 4367907#2 4367907#3 30043557#0 30043557#1 30043557#2 30043557#3 30043557#4 30043557#5 30043557#6 30043557#7 30043557#8 30043557#9 30698464#0 30698464#1 134436331 -278021218 -782674027 -29184898 -30043548"/>
    </vehicle>
    <vehicle id="12" depart="12.00">
        <route edges="782674009#4 782674010#0 782674010#1 782674010#2 782674010#3 782674011#0 782674011#1 782674011#2 -519286883 -23171358#2 -23171358#1 -23171358#0 -4367709 -4367711 -138758814#5 -138758814#4 -138758814#3 -138758814#2 -138758814#1 -138758814#0 -782674020#6 -782674020#5 -782674020#4 -782674020#3 -782674020#2 -782674020#1 -782674020#0 -123755380#3 -123755380#2 -123755380#1 -123755380#0 -4367710 4313204#0 4313204#1 4313204#2 -51982460#1 -51982460#0 -134436321#3 -134436321#2 -134436321#1 -134436321#0 -147522470 -4313202#2 -4313202#1 -4313202#0 -600468612 -31685821#1 -31685821#0 -4313201#4 -4313201#3 -4313201#2 -4313201#1 -4313201#0 -4310341#5 -4310341#4 -4310341#3 -4310341#2 -4310341#1 -4310341#0 -507299759 -31674212#1 -31674212#0 -112630335#3 -112630335#2 -112630335#1 -112630335#0 -29184981 -26433095#2 -26433095#1 -26433095#0 -696517237#2 -696517237#1 -696517237#0 -4313179#3 -4313179#2 -4313179#1 -4313179#0 -4313177#1 -4313177#0 4313176#0 -4313176#0"/>
    </vehicle>
    <vehicle id="13" depart="13.00">
        <route edges="-144844015 -4310349#0 4257503#0 4257503#1 4257503#2 4257503#3 4257503#4 4257503#5 4257503#6 4257503#7 -31685821#1 -31685821#0 -4313201#4 -4313201#3 -4313201#2 144844009#0 144844009#1 -144844009#1"/>
    </vehicle>
    <vehicle id="14" depart="14.00">
        <route edges="4313203#1 4313204#0 4313204#1 4313204#2 -51982460#1 -51982460#0 -134436321#3 -134436321#2 -134436321#1 -134436321#0 -147522470 -4313202#2 -4313202#1 -4313202#0 -600468612 -4257503#7 -4257503#6 -4257503#5 -4257503#4 -4257503#3 -4257503#2 -4257503#1 -4257503#0 -144332786#6 -144332786#5 -144332786#4 -148096348#1 148096348#1"/>
    </vehicle>
    <vehicle id="16" depart="16.00">
        <route edges="136884578 25609604 782674013 -148096344#0 -782674017#2 -782674017#1 -782674017#0 -4436629#2 -4436629#1 -4436629#0 4436633 782674018#1 782674018#2"/>
    </vehicle>
    <vehicle id="17" depart="17.00">
        <route edges="-4436628#4 -4436628#3 -4436628#2 -4436628#1 -4436628#0 138758814#0 138758814#1"/>
    </vehicle>
    <vehicle id="18" depart="18.00">
        <route edges="4313161#4 4313161#5 -4313161#5 -4313161#4 -4313161#3 -4313161#2 -4313161#1 -4313161#0 4313158 -8139202#0 4299421#0 4299421#1 4299421#2 4299421#3 4299421#4 4299421#5 4299421#6 4299421#7 4310339#0 4310339#1 144332784#0 144332784#1 144332784#2 31674214 4310341#0 4310341#1 4310341#2 4310341#3 4310341#4 4310341#5 4313201#0 4313201#1 4313201#2 4313201#3 4313201#4 31685821#0 31685821#1 600468612 4313202#0 4313202#1 4313202#2 147522470 134436321#0 134436321#1 134436321#2 134436321#3 51982460#0 51982460#1 34130886#0 34130886#1 34130886#2 34130886#3 34130886#4 4313203#0 4313203#1 4367710 123755380#0 123755380#1 123755380#2 123755380#3 782674020#0 782674020#1 782674020#2 782674020#3 782674020#4 782674020#5 782674020#6 138758814#0 138758814#1 138758814#2 138758814#3 138758814#4 138758814#5 4367711 4367709 23171358#0 23171358#1 23171358#2 519286883 782674011#3 782674011#4 136884578 782674012#0 782674012#1 782674012#2 136884577#0 23171377#0 23171377#1"/>
    </vehicle>
    <vehicle id="19" depart="19.00">
        <route edges="4367704#3 4313179#0 4313179#1 4313179#2 4313179#3 696517237#0 696517237#1 696517237#2 26433095#0 26433095#1 26433095#2 29184981 112630335#0 112630335#1 112630335#2 112630335#3 31674212#0 31674212#1 507299759 4310341#0 4310341#1 4310341#2 4310341#3 4310341#4 4310341#5 4313201#0 4313201#1 4313201#2 4313201#3 4313201#4 31685821#0 31685821#1 600468612 4313202#0 4313202#1 4313202#2 147522470 134436321#0 134436321#1 134436321#2 134436321#3 51982460#0 51982460#1 34130886#0 34130886#1 34130886#2 34130886#3 34130886#4 4313203#0 4313203#1 4367710 123755380#0 123755380#1 123755380#2 123755380#3 782674020#0 782674020#1 782674020#2 782674020#3 782674020#4 782674020#5 -144843019#1 144843019#1"/>
    </vehicle>
    <vehicle id="20" depart="20.00">
        <route edges="31685822#2 31685822#3 31685822#4 31685822#5 31685822#6 31685822#7 31685822#8 31685822#9 31685822#10 31685822#11 31685822#12 31685822#13 31685822#14 31685822#15 -4313205#1 -4313205#0 4313203#0 4313203#1 4367710 123755380#0 123755380#1 123755380#2 123755380#3 782674020#0 782674020#1 782674020#2 782674020#3 782674020#4 782674020#5 782674020#6 4436628#0 4436628#1 4436628#2 4436628#3 4436628#4 4436628#5 4436628#6 4436628#7 4436628#8 4436628#9 4436628#10 4436628#11 138758812#0 138758812#1 138758812#2 138758812#3 138758812#4 -138758812#4"/>
    </vehicle>
    <vehicle id="21" depart="21.00">
        <route edges="-376143364#2 -376143364#1 -376143364#0 -4310312#3 -4310312#2 -4310312#1 -4310312#0 4310338#0 4310338#1 4310338#2 4310340#0 4310340#1 4310339#0 4310339#1 144332784#0 144332784#1 144332784#2 31674214 4310341#0 4310341#1 4310341#2 4310341#3 4310341#4 4310341#5 4310342#0 4310342#1 -4310342#1"/>
    </vehicle>
    <vehicle id="22" depart="22.00">
        <route edges="-144843586#2 144843586#2 -4310342#3 -4310342#2 -4310342#1 -4310342#0 -4310341#5 -4310341#4 -4310341#3 -4310341#2 -4310341#1 -4310341#0 -507299759 -31674212#1 -31674212#0 -112630335#3 -112630335#2 -112630335#1 -112630335#0 -29184981 -26433095#2 -26433095#1 -26433095#0 -696517237#2 -696517237#1 -696517237#0 -4313179#3 -4313179#2 -4313179#1 -4313179#0 -4313177#1 -4313177#0 -768078661 30043603#6 156185229#0 156185229#1 4257506#0 4257506#1 37574457#0 -37574457#0"/>
    </vehicle>
    <vehicle id="23" depart="23.00">
        <route edges="-148096344#0 -148096343#1 -148096343#0 -4367709 -4367711 -138758814#5 -138758814#4 -138758814#3 -138758814#2 -138758814#1 -138758814#0 -782674020#6 -782674020#5 -782674020#4 -782674020#3 -782674020#2 -782674020#1 -782674020#0 -123755380#3 -123755380#2 -123755380#1 -123755380#0 -4367710 4313204#0 4313204#1 4313204#2 -51982460#1 -51982460#0 -134436321#3 -134436321#2 -134436321#1 -134436321#0 -147522470 -4313202#2 -4313202#1 -4313202#0 -600468612 -31685821#1 -31685821#0 -4313201#4 -4313201#3 -4313201#2 -4313201#1 -4313201#0 -4310341#5 -4310341#4 -4310341#3 -4310341#2 -4310341#1 -4310341#0 -31674214 -144332784#2 -144332784#1 -144332784#0 -4310339#1 -4310339#0 -4310340#1 -4310340#0 -4310338#2 -4310338#1 -4310338#0"/>
    </vehicle>
    <vehicle id="24" depart="24.00">
        <route edges="25625631#0 -25625631#0 4436630#0 4436630#1 4436632#0 4436632#1 4436629#0 4436629#1 4436629#2 782674017#0 782674017#1 782674017#2 -148096343#1 -148096343#0 -4367709 -4367711"/>
    </vehicle>
    <vehicle id="25" depart="25.00">
        <route edges="-4436542#2 -4436542#1 -4436542#0 -30699364#1 -30699364#0 -31685821#0 30697965#0 30697965#1 31685822#0 31685822#1 31685822#2 -31685822#2"/>
    </vehicle>
    <vehicle id="26" depart="26.00">
        <route edges="-4310338#1 4310338#1 4310338#2 4310340#0 4310340#1 4310339#0 4310339#1 144332784#0 144332784#1 144332784#2 31674214 4310341#0 4310341#1 4310341#2 4310341#3 4310341#4 4310341#5 4313201#0 4313201#1 4313201#2 4313201#3 4313201#4 31685821#0 31685821#1 600468612 4313202#0 4313202#1 4313202#2 147522470 134436321#0 134436321#1 134436321#2 134436321#3 51982460#0 51982460#1 34130886#0 34130886#1 34130886#2 34130886#3 34130886#4 4313203#0 4313203#1 4367710 123755380#0 123755380#1 123755380#2 123755380#3 782674020#0 782674020#1 782674020#2 700995072#0 719371920#0 719371920#1"/>
    </vehicle>
    <vehicle id="27" depart="27.00">
        <route edges="29184898 782674027 278021218 -134436331 -30698464#1 -30698464#0 -30043557#9 -30043557#8 -30043557#7 -30043557#6 -30043557#5 -30043557#4 -30043557#3 -30043557#2 -30043557#1 -30043557#0 -4367907#3 -4367907#2 -4367907#1 -4367907#0 -4310349#1 -4310349#0 -144332786#6 -144332786#5 -144332786#4 -144332786#3 -144332786#2 -144332786#1 -144332786#0 -4310342#4 -4310342#3 -4310342#2 -4310342#1 -4310342#0 -4310341#5 -4310341#4 -4310341#3 -4310341#2 -4310341#1 -4310341#0 -507299759 -31674212#1 -31674212#0 -112630335#3 -112630335#2 -112630335#1 -112630335#0 -29184981 -26433095#2 -26433095#1 -26433095#0 -696517237#2 -696517237#1 -696517237#0 -4313179#3 -4313179#2 -4313179#1 -4313179#0 -4313177#1 -4313177#0 -768078661 30043603#6 156185229#0 156185229#1 4257506#0 4257506#1 37574457#0 37574457#1 37574457#2 37574457#3 37574457#4 37574457#5 37574457#6 37574457#7 37574457#8 156185219#0"/>
    </vehicle>
    <vehicle id="28" depart="28.00">
        <route edges="-30699361#0 -30699363 -134436324 -4310346#5 -4310346#4 -4310346#3 -4310346#2 -4310346#1 -4310346#0 4313204#2 -51982460#1 -51982460#0 -134436321#3 -134436321#2 -134436321#1 -134436321#0 -147522470 -4313202#2 -4313202#1 -4313202#0 -600468612 -31685821#1 -31685821#0 -4313201#4 -4313201#3 -4313201#2 -4313201#1 -4313201#0 -4310341#5 -4310341#4 -4310341#3 -4310341#2 -4310341#1 -4310341#0 -31674214 -144332784#2 -144332784#1 -144332784#0 -4310339#1 -4310339#0 -4310340#1 -4310340#0 -4310338#2 -4310338#1 -4310338#0 4310312#0 4310312#1 4310312#2 4310312#3 376143364#0 376143364#1 376143364#2"/>
    </vehicle>
    <vehicle id="29" depart="29.00">
        <route edges="-30697797 -4257501#5 -4257501#4 -4257501#3 -4257501#2 -4257501#1 -4257501#0 -28113971#2 -28113971#1 -28113971#0 -133632842#6 -133632842#5 4373965#0 4373965#1 4373965#2 -4373965#2"/>
    </vehicle>
    <vehicle id="30" depart="30.00">
        <route edges="782674020#6 -782674020#6 -782674020#5 -782674020#4 -782674020#3 -782674020#2 -782674020#1 -782674020#0 -123755380#3 -123755380#2 -123755380#1 -123755380#0 -4367710 4313204#0 4313204#1 4310346#0 4310346#1 4310346#2 4310346#3 4310346#4 4310346#5 134436324 30699363 30699361#0 30699361#1 -4310347#3 -4310347#2 -4310347#1 -4310347#0 4310348#0 4310348#1 4367907#0 4367907#1 4367907#2 4367907#3 30043557#0 30043557#1 30043557#2 30043557#3 30043557#4 30043557#5 30043557#6 30043557#7 30043557#8 30043557#9 30698464#0 30698464#1 134436331 -278021218 -782674027 -29184898 29184898"/>
    </vehicle>
    <vehicle id="31" depart="31.00">
        <route edges="144332786#2 -144332786#2 -144332786#1 -144332786#0 -4310342#4 -4310342#3 -4310342#2 -4310342#1 -4310342#0 -4310341#5 -4310341#4 -4310341#3 -4310341#2 -4310341#1 -4310341#0 -507299759 -31674212#1 -31674212#0 31674212#0"/>
    </vehicle>
    <vehicle id="32" depart="32.00">
        <route edges="4313201#4 -4313201#4 -4313201#3 -4313201#2 -4313201#1 -4313201#0 -4310341#5 -4310341#4 4310341#4"/>
    </vehicle>
    <vehicle id="33" depart="33.00">
        <route edges="-376143364#3 -376143364#2 -376143364#1 -376143364#0 -4310312#3 -4310312#2 -4310312#1 -4310312#0 4310338#0 4310338#1 4310338#2 4310340#0 4310340#1 4310339#0 4310339#1 144332784#0 144332784#1 144332784#2 31674214 4310341#0 4310341#1 4310341#2 4310341#3 4310341#4 4310341#5 4313201#0 4313201#1 4313201#2 4313201#3 4313201#4 31685821#0 31685821#1 600468612 4313202#0 4313202#1 4313202#2 147522470 134436321#0 -134436321#0"/>
    </vehicle>
    <vehicle id="34" depart="34.00">
        <route edges="-4313158 4313158 -8139202#0 4299421#0 4299421#1 4299421#2 4299421#3 4299421#4 4299421#5 -4299421#5"/>
    </vehicle>
    <vehicle id="35" depart="35.00">
        <route edges="-34130886#0 34130886#0 34130886#1 34130886#2 34130886#3 34130886#4 4313203#0 4313203#1 4367710 123755380#0 123755380#1 123755380#2 123755380#3 782674020#0 782674020#1 782674020#2 782674020#3 782674020#4 782674020#5 782674020#6 138758814#0 138758814#1 138758814#2 138758814#3 138758814#4 138758814#5 4367711 4367709 23171358#0 23171358#1 23171358#2 519286883 -782674011#2 -782674011#1 -782674011#0 -519286892#4 -519286892#3 -782674007#3 -782674007#2 -782674007#1 -782674007#0 -782424921#1 782424921#1"/>
    </vehicle>
    <vehicle id="37" depart="37.00">
        <route edges="30043551#5 30043551#6 30043551#7 4367908#0 4367908#1 4367908#2 4367908#3 4367909#0 4367909#1 4367909#2 4367909#3 136884173#0 136884173#1 503483959 503483957#0 503483957#1 782674009#0 782674009#1 782674009#2 782674009#3 782674009#4 782674010#0 782674010#1 782674010#2 782674010#3 782674011#0 782674011#1 782674011#2 -519286883 -23171358#2 -23171358#1 -23171358#0 -4367709 -4367711 -138758814#5 -138758814#4 -138758814#3 -138758814#2 -138758814#1 -138758814#0 4436628#0 4436628#1 4436628#2 4436628#3 4436628#4 4436628#5 4436628#6 4436628#7 4436628#8 4436628#9 -4436628#9 -4436628#8"/>
    </vehicle>
    <vehicle id="38" depart="38.00">
        <route edges="519286892#0 -519286892#0 782674010#0 -782674010#0"/>
    </vehicle>
    <vehicle id="39" depart="39.00">
        <route edges="-4310312#3 -4310312#2 -4310312#1 -4310312#0 4313157#0 4313157#1 4313157#2 4313157#3 4313157#4 4313158 8139202#1 255043871#0 255043871#1 528433234#0 528433234#1 528433234#2 133632842#4 133632842#5 133632842#6 28113971#0 28113971#1 28113971#2 4257501#0 4257501#1 4257501#2 -4257501#2"/>
    </vehicle>
    <vehicle id="40" depart="40.00">
        <route edges="144594846#1 144594846#2 -696517237#2 -696517237#1 -696517237#0 -4313179#3 -4313179#2 -4313179#1 -4313179#0 -4313177#1 -4313177#0 -768078661 30043603#6 156185229#0 156185229#1 4257506#0 4257506#1 -4257506#1"/>
    </vehicle>
    <vehicle id="41" depart="41.00">
        <route edges="144844004#1 144332786#1 144332786#2 144332786#3 144332786#4 144332786#5 144332786#6 4257503#0 4257503#1 4257503#2 4257503#3 4257503#4 4257503#5 4257503#6 4257503#7 600468612 4313202#0 4313202#1 4313202#2 147522470 134436321#0 134436321#1 134436321#2 134436321#3 51982460#0 51982460#1 34130886#0 34130886#1 34130886#2 34130886#3 34130886#4 4313203#0 4313203#1 4367710 123755380#0 123755380#1 123755380#2 123755380#3 782674020#0 782674020#1 782674020#2 782674020#3 782674020#4 782674020#5 782674020#6 138758814#0 138758814#1 138758814#2 138758814#3 138758814#4 138758814#5 4367711 4367709 148096343#0 148096343#1 -782674017#2 -782674017#1 -782674017#0 -4436629#2 -4436629#1 -4436629#0 4436633 782674018#1 782674018#2 782674018#3 782674018#4 782674018#5 782674018#6 782674018#7 782674018#8 4436634"/>
    </vehicle>
    <vehicle id="42" depart="42.00">
        <route edges="-503483959 -136884173#1 136884173#1 503483959 503483957#0 503483957#1 782674009#0 782674009#1 782674009#2 782674009#3 782674009#4 782674010#0 782674010#1 782674010#2 782674010#3 782674011#0 782674011#1 782674011#2 -519286883 -23171358#2 -23171358#1 -23171358#0 -4367709 -4367711 -138758814#5 -138758814#4 -138758814#3 -138758814#2 -138758814#1 -138758814#0 -782674020#6 -782674020#5 -782674020#4 -782674020#3 -782674020#2 -782674020#1 -782674020#0 -123755380#3 -123755380#2 -123755380#1 -123755380#0 -4367710 4313204#0 4313204#1 4313204#2 -51982460#1 -51982460#0 -757649849 -31685824#3"/>
    </vehicle>
    <vehicle id="43" depart="43.00">
        <route edges="83270114 4367704#1 4367704#2 4367704#3 4313179#0 4313179#1 4313179#2 4313179#3 696517237#0 696517237#1 696517237#2 26433095#0 26433095#1 26433095#2 29184981 112630335#0 112630335#1 112630335#2"/>
    </vehicle>
    <vehicle id="44" depart="44.00">
        <route edges="-144844010#0 144844010#0 144844010#1 -4313205#7 -4313205#6 -4313205#5 -4313205#4 -4313205#3 -4313205#2 -4313205#1 -4313205#0 4313203#0 4313203#1 4367710 123755380#0 123755380#1 123755380#2 123755380#3 782674020#0 782674020#1 782674020#2 782674020#3 782674020#4 782674020#5 782674020#6 4436628#0 4436628#1 4436628#2 4436628#3 4436628#4 4436628#5 4436628#6 4436628#7 4436628#8 4436628#9 4436628#10 4436628#11 138758812#0 138758812#1 138758812#2 138758812#3 138758812#4 138758812#5 138758812#6 -138758812#6"/>
    </vehicle>
    <vehicle id="45" depart="45.00">
        <route edges="-156185219#1 -156185219#0 -37574457#8 -37574457#7 -37574457#6 -37574457#5 -37574457#4 -37574457#3 -37574457#2 -37574457#1 -37574457#0 -4257506#1 -4257506#0 -156185229#1 -156185229#0 -30043603#6 768078661 4313177#0 4313177#1 4313179#0 4313179#1 4313179#2 4313179#3 696517237#0 696517237#1 696517237#2 26433095#0 26433095#1"/>
    </vehicle>
    <vehicle id="46" depart="46.00">
        <route edges="4310346#1 4310346#2 4310346#3 4310346#4 4310346#5 134436324 30699363 30699361#0 30699361#1 -4310347#3 -4310347#2 -4310347#1 -4310347#0 4310348#0 4310348#1 -4310349#1 -4310349#0 -144332786#6 -144332786#5 -144332786#4 -144332786#3 -144332786#2 -144332786#1 -144332786#0 -4257502#1 -4257502#0 -4257501#8 -4257501#7 -4257501#6 -4257501#5 -4257501#4 -4257501#3 -4257501#2 -4257501#1 -4257501#0 -28113971#2 -28113971#1 -28113971#0 -133632842#6 -133632842#5 -133632842#4 -528433234#2 -528433234#1 -528433234#0"/>
    </vehicle>
    <vehicle id="47" depart="47.00">
        <route edges="-144332786#6 144332786#6 4257503#0 4257503#1 4257503#2 4257503#3 4257503#4 4257503#5 4257503#6 4257503#7 600468612 4313202#0 4313202#1 4313202#2 147522470 134436321#0 134436321#1 134436321#2 134436321#3 51982460#0 51982460#1 34130886#0 34130886#1 34130886#2 34130886#3 34130886#4 4313203#0 4313203#1 4367710 123755380#0 123755380#1 123755380#2 123755380#3 782674020#0 782674020#1 782674020#2 782674020#3 782674020#4 782674020#5 782674020#6 4436628#0 4436628#1 4436628#2 4436628#3 4436628#4 4436628#5 4436628#6 4436628#7 4436628#8 4436628#9 4436628#10 4436628#11 138758812#0 138758812#1 138758812#2 -23642673#2 -23642673#1 -23642673#0 4378735 -4378735"/>
    </vehicle>
    <vehicle id="48" depart="48.00">
        <route edges="83270111#0 -83270111#0 4367704#3 -4313177#1 -4313177#0 -768078661 30043603#6 156185229#0 156185229#1 4257506#0 4257506#1 37574457#0 37574457#1 37574457#2 37574457#3 37574457#4 4313156#0 4313156#1 4313156#2 4313156#3 4313156#4 112630345 112630339#0 112630339#1 528433230 4313157#0 4313157#1 4313157#2 4313157#3 4313157#4 4313161#0 4313161#1 4313161#2 4313161#3 4313161#4 4313161#5 -133632843#3 -133632843#2 -133632843#1 133632843#1 133632843#2"/>
    </vehicle>
    <vehicle id="49" depart="49.00">
        <route edges="782674015#1 -782674015#1 -782674015#0 -782674014 -148096344#1 -148096344#0 -148096343#1 -148096343#0 -4367709 -4367711 -138758814#5 -138758814#4 -138758814#3 -138758814#2 -138758814#1 -138758814#0 -782674020#6 -782674020#5 -782674020#4 -782674020#3 -782674020#2 -782674020#1 -782674020#0 -123755380#3 -123755380#2 -123755380#1 -123755380#0 -4367710 4313204#0 4313204#1 4310346#0 4310346#1 4310346#2 4310346#3 4310346#4 4310346#5 134436324 30699363 30699361#0 30699361#1 -4310347#3 -4310347#2 -4310347#1 -4310347#0 4310348#0 4310348#1 4367907#0 4367907#1 4367907#2 4367907#3"/>
    </vehicle>
    <vehicle id="50" depart="50.00">
        <route edges="-112630339#1 -112630339#0 -112630345 -4313156#4 -4313156#3 -4313156#2 -4313156#1 -4313156#0 -37574457#4 -37574457#3 -37574457#2 -37574457#1 37574457#1"/>
    </vehicle>
    <vehicle id="51" depart="51.00">
        <route edges="30699361#0 -30699361#0 -30699363 -134436324 134436324"/>
    </vehicle>
    <vehicle id="52" depart="52.00">
        <route edges="-4310338#1 4310338#1 4310338#2 4310340#0 4310340#1 4310339#0 4310339#1 144332784#0 144332784#1 144332784#2 31674214 -507299759 -31674212#1 -31674212#0 -112630335#3 -112630335#2 -112630335#1 -112630335#0 -29184981 -26433095#2 26433095#2 29184981"/>
    </vehicle>
    <vehicle id="53" depart="53.00">
        <route edges="-156185229#0 -30043603#6 768078661 4313177#0 4313177#1 4313179#0 4313179#1 4313179#2 4313179#3 696517237#0 696517237#1 696517237#2 -696517237#2 -696517237#1"/>
    </vehicle>
    <vehicle id="54" depart="54.00">
        <route edges="-782674011#1 -782674011#0 -782674010#3 -782674010#2 -782674010#1 -782674010#0 -782674009#4 782674009#4"/>
    </vehicle>
    <vehicle id="55" depart="55.00">
        <route edges="4367909#3 136884173#0 136884173#1 503483959 503483957#0 503483957#1 782674009#0 782674009#1 782674009#2 782674009#3 782674009#4 782674010#0 782674010#1 782674010#2 782674010#3 782674011#0 782674011#1 782674011#2 -519286883 -23171358#2 -23171358#1 -23171358#0 -4367709 -4367711 -138758814#5 -138758814#4 -138758814#3 -138758814#2 -138758814#1 -138758814#0 -782674020#6 -782674020#5 -782674020#4 -782674020#3 -782674020#2 -782674020#1 -782674020#0 -123755380#3 -123755380#2 -123755380#1 -123755380#0 -4367710 4313204#0 4313204#1 4313204#2 -51982460#1 -51982460#0 -134436321#3 -134436321#2 -134436321#1 -134436321#0 -147522470 -4313202#2 -4313202#1 -4313202#0 -600468612 -31685821#1 -31685821#0 -4313201#4 -4313201#3 -4313201#2 -4313201#1 -4313201#0 -4310341#5 -4310341#4 -4310341#3 -4310341#2 -4310341#1 -4310341#0 -31674214 -144332784#2 -144332784#1 -144332784#0 -4310339#1 -4310339#0 -4299421#7 -4299421#6 -4299421#5 -4299421#4 -4299421#3 -4299421#2 -4299421#1 -4299421#0"/>
    </vehicle>
    <vehicle id="56" depart="56.00">
        <route edges="112502964#6 112502964#7 -376143364#3 -376143364#2 -376143364#1 -376143364#0 -4310312#3 -4310312#2 -4310312#1 -4310312#0 4310338#0 4310338#1 4310338#2 4310340#0 4310340#1 4310339#0 4310339#1 144332784#0 144332784#1 144332784#2 31674214 4310341#0 4310341#1 4310341#2 4310341#3 4310341#4 4310341#5 4313201#0 4313201#1 4313201#2 4313201#3 4313201#4 30697965#0 -30697965#0"/>
    </vehicle>
    <vehicle id="57" depart="57.00">
        <route edges="519286876 -519286876 -23171358#2 -23171358#1 -23171358#0 -4367709 -4367711 -138758814#5 -138758814#4 -138758814#3 -138758814#2 -138758814#1 -138758814#0 -782674020#6 -782674020#5 -782674020#4 -782674020#3 -782674020#2 -782674020#1 -782674020#0 -123755380#3 -123755380#2 -123755380#1 -123755380#0 -4367710 4313204#0 4313204#1 4313204#2 -51982460#1 -51982460#0 -134436321#3 -134436321#2 -134436321#1 -134436321#0 -147522470 -4313202#2 -4313202#1 -4313202#0 -600468612 -31685821#1 -31685821#0 -4313201#4 -4313201#3 -4313201#2 -4313201#1 -4313201#0 -4310341#5 -4310341#4 -4310341#3 -4310341#2 -4310341#1 -4310341#0 -31674214 -144332784#2 -144332784#1 -144332784#0 -4310339#1 -4310339#0 -4299421#7 -4299421#6 -4299421#5 -4299421#4 -4299421#3 -4299421#2 -4299421#1 -4299421#0 8139202#0 8139202#1 255043871#0 255043871#1 528433234#0 528433234#1 528433234#2 133632842#4 4373965#0 4373965#1 4373965#2"/>
    </vehicle>
    <vehicle id="59" depart="59.00">
        <route edges="148096344#0 -148096344#0 -148096343#1 -148096343#0 -4367709 -4367711 -138758814#5 -138758814#4 -138758814#3 -138758814#2 -138758814#1 -138758814#0 -782674020#6 -782674020#5 -782674020#4 -782674020#3 -782674020#2 -782674020#1 -782674020#0 -123755380#3 -123755380#2 -123755380#1 -123755380#0 -4367710 4313204#0 4313204#1 4310346#0 4310346#1 4310346#2 4310346#3 4310346#4 4310346#5 134436324 30699363 30699361#0 30699361#1 -4310347#3 -4310347#2 -4310347#1 -4310347#0 4310348#0 4310348#1 4367907#0 4367907#1 4367907#2 4367907#3 30043557#0 30043557#1 30043557#2 30043557#3 30043557#4 30043557#5 30043557#6 30043557#7 30043557#8 30043557#9 30698464#0 30698464#1 134436331 30043555 29184857#0 29184857#1 29184857#2 -29184857#2"/>
    </vehicle>
    <vehicle id="60" depart="60.00">
        <route edges="4299421#5 4299421#6 4299421#7 4310339#0 4310339#1 144332784#0 144332784#1 144332784#2 31674214 4310341#0 4310341#1 4310341#2 4310341#3 4310341#4 4310341#5 4313201#0 4313201#1 4313201#2 4313201#3 4313201#4 31685821#0 31685821#1 600468612 4313202#0 4313202#1 4313202#2 147522470 134436321#0 134436321#1 134436321#2 134436321#3 51982460#0 51982460#1 34130886#0 34130886#1 34130886#2 34130886#3 34130886#4 4313203#0 4313203#1 4367710 123755380#0 123755380#1 123755380#2 123755380#3 782674020#0 782674020#1 782674020#2 782674020#3 782674020#4 782674020#5 782674020#6 138758814#0 138758814#1 138758814#2 138758814#3 138758814#4 138758814#5 4367711 4367709 23171358#0 23171358#1 23171358#2 519286883 -782674011#2 -782674011#1 -782674011#0 -782674010#3 -782674010#2 -782674010#1 -782674010#0 -782674009#4 -782674009#3 -782674009#2 -782674009#1 -782674009#0 -503483957#1 -503483957#0 -503483959 -136884173#1 136884173#1"/>
    </vehicle>
    <vehicle id="61" depart="61.00">
        <route edges="4310341#0 -4310341#0 -31674214 -144332784#2 -144332784#1 -144332784#0 -4310339#1 -4310339#0 -4299421#7 -4299421#6 -4299421#5 -4299421#4 -4299421#3 -4299421#2 -4299421#1 -4299421#0 8139202#0 -4313158 4313161#0 4313161#1 4313161#2 4313161#3 4313161#4 4313161#5 -133632843#3 133632843#3"/>
    </vehicle>